data/case2746wop.m
function mpc = case2746wop
%CASE2746WOP    Power flow data for Polish system - winter 2003-04 off-peak.
%   Please see CASEFORMAT for details on the case file format.
%
%   This case represents the Polish 400, 220 and 110 kV networks during
%   winter 2003-04 off-peak conditions. Multiple centrally dispatchable
%   generators at a bus have not been aggregated. Generators that are
%   not centrally dispatchable in the Polish energy market are given a
%   cost of zero.
%
%   This data was graciously provided by, and is distributed with the
%   permission of, Roman Korab <roman.korab@polsl.pl>.

%   MATPOWER

%% MATPOWER Case Format : Version 2
mpc.version = '2';

%%-----  Power Flow Data  -----%%
%% system MVA base
mpc.baseMVA = 100;

%% bus data
%	bus_i	type	Pd	Qd	Gs	Bs	area	Vm	Va	baseKV	zone	Vmax	Vmin	lam_P	lam_Q	mu_Vmax	mu_Vmin
mpc.bus = [
	1	1	0	0	0	0	1	1.1003396	-5.8041144	220	1	1.11	0.95	91.0752	0.1612	0.0000	0.0000;
	2	1	0	0	0	0	1	1.1039808	-2.5080831	220	1	1.11	0.95	90.2372	0.0981	0.0000	0.0000;
	3	1	0	0	0	0	1	1.0727181	-22.67999	220	1	1.11	0.95	99.4746	0.0556	0.0000	0.0000;
	4	1	0	0	0	0	1	1.0979142	-8.8291158	220	1	1.11	0.95	92.5348	0.2170	0.0000	0.0000;
	5	1	0	0	0	0	1	1.0979424	-8.8358003	220	1	1.11	0.95	92.5362	0.2166	0.0000	0.0000;
	6	1	0	0	0	0	1	1.0787899	-16.503557	220	1	1.11	0.95	95.7776	0.0797	0.0000	0.0000;
	7	1	0	0	0	0	1	1.0788162	-16.497825	220	1	1.11	0.95	95.7746	0.0792	0.0000	0.0000;
	8	1	0	0	0	-50	1	1.029636	-14.94355	400	1	1.05	0.95	95.4057	-0.1452	0.0000	0.0000;
	9	1	0	0	0	0	1	1.0296346	-14.945198	400	1	1.05	0.95	95.4074	-0.1448	0.0000	0.0000;
	10	1	0	0	0	0	1	1.0764851	-16.871989	220	1	1.11	0.95	96.2651	0.1446	0.0000	0.0000;
	11	1	0	0	0	0	1	1.0764187	-16.885088	220	1	1.11	0.95	96.2675	0.1441	0.0000	0.0000;
	12	1	0	0	0	0	1	1.0764286	-16.878588	220	1	1.11	0.95	96.2643	0.1418	0.0000	0.0000;
	13	1	0	0	0	-50	1	1.0247184	-13.167523	400	1	1.05	0.95	94.7302	0.1268	0.0000	0.0000;
	14	1	0	0	0	0	1	1.0248019	-13.162182	400	1	1.05	0.95	94.7274	0.1254	0.0000	0.0000;
	15	1	0	0	0	0	1	1.0390928	-16.217261	400	1	1.05	0.95	95.2293	-1.3509	0.0000	0.0000;
	16	1	0	0	0	0	1	1.0390928	-16.217261	400	1	1.05	0.95	95.2293	-1.3509	0.0000	0.0000;
	17	2	2.302	31	0	0	1	1.1007402	-18.634562	220	1	1.11	0.95	97.2041	-0.0000	0.0000	0.0000;
	18	2	9.7	40	0	0	1	1.1008786	-18.636829	220	1	1.11	0.95	97.2054	0.0000	0.0000	0.0000;
	19	1	0	0	0	0	1	1.0998027	-8.0293797	220	1	1.11	0.95	92.1699	0.2155	0.0000	0.0000;
	20	1	0	0	0	0	1	1.0997938	-8.025711	220	1	1.11	0.95	92.1708	0.2158	0.0000	0.0000;
	21	1	0	0	0	0	1	1.0907944	-18.579546	220	1	1.11	0.95	97.1328	0.0143	0.0000	0.0000;
	22	1	0	0	0	0	1	1.0907944	-18.579546	220	1	1.11	0.95	97.1328	0.0143	0.0000	0.0000;
	23	1	0	0	0	0	1	1.0767644	-16.828683	220	1	1.11	0.95	96.1970	0.0700	0.0000	0.0000;
	24	1	0	0	0	0	1	1.1002404	-5.9666469	220	1	1.11	0.95	91.4932	0.1722	0.0000	0.0000;
	25	1	0	0	0	-50	1	1.0208745	-17.645776	400	1	1.05	0.95	97.1084	0.9915	0.0000	0.0000;
	26	2	28.565	42.054	0	0	1	1.1094364	-5.6168012	220	1	1.11	0.95	90.9717	-0.0000	0.0000	0.0000;
	27	2	85.005	122.06	0	0	1	1.11	-2.2752568	220	1	1.11	0.95	90.1299	0.0000	1246.2206	0.0000;
	28	3	44.783	80	0	0	1	1.048419	-4.412957	400	1	1.05	0.95	91.1767	-0.0000	0.0000	0.0000;
	29	2	60.097	90	0	0	1	1.0484076	-4.4038563	400	1	1.05	0.95	91.1718	-0.0017	0.0000	0.0000;
	30	1	0	0	0	0	1	1.0806119	-18.048309	220	1	1.11	0.95	97.0716	0.1704	0.0000	0.0000;
	31	1	0	0	0	0	1	1.0490196	-5.4090272	400	1	1.05	0.95	91.2070	-0.3208	0.0000	0.0000;
	32	1	0	0	0	0	1	1.0750736	-17.031979	220	1	1.11	0.95	96.3326	0.1655	0.0000	0.0000;
	33	1	0	0	0	0	1	1.1002441	-5.9657856	220	1	1.11	0.95	91.4930	0.1722	0.0000	0.0000;
	34	1	0	0	0	0	1	1.1001336	-11.700376	220	1	1.11	0.95	93.7432	0.1876	0.0000	0.0000;
	35	1	0	0	0	0	1	1.0930028	-14.672176	220	2	1.11	0.95	94.7883	-0.8657	0.0000	0.0000;
	36	1	0	0	0	0	1	1.0813334	-15.095174	220	2	1.11	0.95	95.3394	-0.8172	0.0000	0.0000;
	37	1	0	0	0	0	1	1.090534	-14.116108	220	2	1.11	0.95	94.7038	-1.0768	0.0000	0.0000;
	38	1	0	0	0	0	1	1.0905091	-14.11899	220	2	1.11	0.95	94.7053	-1.0765	0.0000	0.0000;
	39	1	0	0	0	0	1	1.0853026	-15.717887	220	2	1.11	0.95	95.6296	-0.6557	0.0000	0.0000;
	40	1	0	0	0	0	1	1.11	-13.425662	220	2	1.11	0.95	94.1415	-3.4975	20377.2614	0.0000;
	41	1	0	0	0	0	1	1.1099097	-13.42867	220	2	1.11	0.95	94.1434	-3.4837	0.0000	0.0000;
	42	1	0	0	0	0	1	1.026429	-13.487985	400	2	1.05	0.95	94.2405	-2.4059	0.0000	0.0000;
	43	2	12	0	0	0	1	1.0984004	-13.307731	220	2	1.11	0.95	94.2528	-0.6891	0.0000	0.0000;
	44	2	24	0	0	0	1	1.0983481	-13.292422	220	2	1.11	0.95	94.2488	-0.6908	0.0000	0.0000;
	45	2	20	0	0	0	1	1.0325913	-13.232481	400	2	1.05	0.95	94.5600	-0.5862	0.0000	0.0000;
	46	1	0	0	0	0	1	1.032567	-13.234248	400	2	1.05	0.95	94.5595	-0.5865	0.0000	0.0000;
	47	1	0	0	0	0	1	1.1087361	-13.856041	220	2	1.11	0.95	94.4268	-3.3016	0.0000	0.0000;
	48	1	0	0	0	0	1	1.0284578	-17.17828	400	2	1.05	0.95	95.6142	-0.6768	0.0000	0.0000;
	49	1	0	0	0	0	1	1.0284335	-17.183891	400	2	1.05	0.95	95.6169	-0.6759	0.0000	0.0000;
	50	1	0	0	0	0	1	1.0284061	-13.715843	400	2	1.05	0.95	94.6694	-0.6383	0.0000	0.0000;
	51	1	0	0	0	0	1	1.085418	-14.827225	220	2	1.11	0.95	95.0503	-0.6626	0.0000	0.0000;
	52	1	0	0	0	0	1	1.0854171	-14.824059	220	2	1.11	0.95	95.0503	-0.6619	0.0000	0.0000;
	53	1	0	0	0	0	1	1.0367923	-13.975449	400	2	1.05	0.95	94.6640	-1.0822	0.0000	0.0000;
	54	1	0	0	0	0	1	1.0368177	-13.975713	400	2	1.05	0.95	94.6638	-1.0834	0.0000	0.0000;
	55	2	12	0	0	0	1	1.0933675	-13.241702	220	2	1.11	0.95	94.2858	-1.1741	0.0000	0.0000;
	56	2	12	0	0	0	1	1.0933406	-13.24139	220	2	1.11	0.95	94.2831	-1.1766	0.0000	0.0000;
	57	2	12	0	0	0	1	1.0399269	-13.602589	400	2	1.05	0.95	94.4699	-1.2205	0.0000	0.0000;
	58	2	12	0	0	0	1	1.0399116	-13.607331	400	2	1.05	0.95	94.4716	-1.2215	0.0000	0.0000;
	59	2	170.733	62	0	0	1	1.0905288	-14.340794	220	2	1.11	0.95	94.7184	-0.7196	0.0000	0.0000;
	60	1	0	0	0	0	1	1.0905917	-14.3368	220	2	1.11	0.95	94.7166	-0.7200	0.0000	0.0000;
	61	1	0	0	0	0	1	1.1039125	-13.978585	220	2	1.11	0.95	94.4607	-2.8150	0.0000	0.0000;
	62	1	0	0	0	0	1	1.0972139	-14.122428	220	2	1.11	0.95	94.7122	-1.2575	0.0000	0.0000;
	63	1	0	0	0	0	1	1.0971852	-14.124141	220	2	1.11	0.95	94.7125	-1.2535	0.0000	0.0000;
	64	1	0	0	0	0	1	1.0393295	-14.834542	400	2	1.05	0.95	94.8460	-0.9549	0.0000	0.0000;
	65	1	0	0	0	0	1	1.0392873	-14.845309	400	2	1.05	0.95	94.8501	-0.9534	0.0000	0.0000;
	66	1	0	0	0	0	1	1.0885809	-14.851473	220	2	1.11	0.95	95.0154	-0.9744	0.0000	0.0000;
	67	1	0	0	0	0	1	1.089995	-14.701292	220	2	1.11	0.95	94.9206	-0.9983	0.0000	0.0000;
	68	1	0	0	0	0	1	1.0846849	-14.135762	220	2	1.11	0.95	94.7452	-0.5656	0.0000	0.0000;
	69	1	0	0	0	0	1	1.0984623	-9.2101367	220	3	1.11	0.95	92.5536	-0.4363	0.0000	0.0000;
	70	1	6.8	0	0	0	1	1.097636	-14.395557	220	3	1.11	0.95	94.8577	-0.6622	0.0000	0.0000;
	71	1	11.331	2.43	0	0	1	1.0975064	-14.403378	220	3	1.11	0.95	94.8625	-0.6605	0.0000	0.0000;
	72	1	0	0	0	0	1	1.0946558	-13.203738	220	3	1.11	0.95	94.4287	0.0529	0.0000	0.0000;
	73	1	0	0	0	0	1	1.0946671	-13.188287	220	3	1.11	0.95	94.4232	0.0520	0.0000	0.0000;
	74	1	0	0	0	0	1	1.1051601	-10.740817	220	3	1.11	0.95	92.8448	-0.0061	0.0000	0.0000;
	75	1	0	0	0	0	1	1.105133	-10.745835	220	3	1.11	0.95	92.8468	-0.0061	0.0000	0.0000;
	76	1	0	0	0	0	1	1.0977557	-17.582249	220	3	1.11	0.95	96.4839	-0.1590	0.0000	0.0000;
	77	1	0	0	0	0	1	1.0977202	-17.594098	220	3	1.11	0.95	96.4888	-0.1583	0.0000	0.0000;
	78	2	26.999	69.999	0	0	1	1.0964689	-12.136129	220	3	1.11	0.95	93.8755	0.0000	0.0000	0.0000;
	79	2	8.999	20.999	0	0	1	1.0978822	-12.713425	220	3	1.11	0.95	94.1106	-0.1274	0.0000	0.0000;
	80	1	10.085	1.376	0	0	1	1.0931866	-12.507737	220	3	1.11	0.95	94.2409	0.1606	0.0000	0.0000;
	81	1	0	0	0	0	1	1.093188	-12.511077	220	3	1.11	0.95	94.2426	0.1602	0.0000	0.0000;
	82	2	34.999	107.999	0	0	1	1.0444058	-6.4720845	400	3	1.05	0.95	91.2673	-0.2746	0.0000	0.0000;
	83	1	0	0	0	0	1	1.1049043	-10.293455	220	3	1.11	0.95	92.2247	0.1083	0.0000	0.0000;
	84	1	0	0	0	0	1	1.1026824	-11.36773	220	3	1.11	0.95	93.1712	0.0061	0.0000	0.0000;
	85	1	0	0	0	0	1	1.1026432	-11.377001	220	3	1.11	0.95	93.1761	0.0057	0.0000	0.0000;
	86	1	44.148	10.561	0	0	1	1.0984388	-9.2863579	220	3	1.11	0.95	92.5076	-0.3943	0.0000	0.0000;
	87	1	0	0	0	0	1	1.0984259	-9.2914791	220	3	1.11	0.95	92.5093	-0.3942	0.0000	0.0000;
	88	1	0	0	0	0	1	1.0937893	-11.307709	220	3	1.11	0.95	93.2279	0.1169	0.0000	0.0000;
	89	1	0	0	0	0	1	1.0937779	-11.31451	220	3	1.11	0.95	93.2313	0.1172	0.0000	0.0000;
	90	1	0	0	0	0	1	1.1006589	-8.8485145	220	3	1.11	0.95	92.3093	-0.4196	0.0000	0.0000;
	91	1	0	0	0	0	1	1.1006662	-8.8442565	220	3	1.11	0.95	92.3084	-0.4230	0.0000	0.0000;
	92	1	0	0	0	0	1	1.0494747	-6.6627576	400	3	1.05	0.95	91.9021	-0.2194	0.0000	0.0000;
	93	1	0	0	0	0	1	1.0494739	-6.6630247	400	3	1.05	0.95	91.9019	-0.2193	0.0000	0.0000;
	94	1	0	0	0	0	1	1.1018218	-10.698364	220	3	1.11	0.95	92.6759	0.0145	0.0000	0.0000;
	95	1	0	0	0	0	1	1.1018628	-10.698531	220	3	1.11	0.95	92.6753	0.0147	0.0000	0.0000;
	96	1	0	0	0	0	1	1.1057907	-10.479777	220	3	1.11	0.95	92.5431	0.0805	0.0000	0.0000;
	97	1	0	0	0	0	1	1.1057932	-10.478906	220	3	1.11	0.95	92.5417	0.0805	0.0000	0.0000;
	98	1	17.111	6.317	0	0	1	1.0963136	-12.427766	220	3	1.11	0.95	93.9483	-0.3273	0.0000	0.0000;
	99	1	0	0	0	0	1	1.0963094	-12.423739	220	3	1.11	0.95	93.9468	-0.3292	0.0000	0.0000;
	100	1	0	0	0	0	1	1.0976761	-14.377845	220	3	1.11	0.95	94.8491	-0.6629	0.0000	0.0000;
	101	1	0	0	0	0	1	1.0976653	-14.379626	220	3	1.11	0.95	94.8497	-0.6616	0.0000	0.0000;
	102	1	0	0	0	0	1	1.0968926	-16.800572	220	3	1.11	0.95	96.1741	-0.0690	0.0000	0.0000;
	103	1	0	0	0	0	1	1.096839	-16.788467	220	3	1.11	0.95	96.1712	-0.0678	0.0000	0.0000;
	104	2	13.999	39.999	0	0	1	1.1058911	-10.737461	220	3	1.11	0.95	92.7800	0.0000	0.0000	0.0000;
	105	2	0	0	0	0	1	1.1058905	-10.750145	220	3	1.11	0.95	92.7824	-0.0003	0.0000	0.0000;
	106	2	6.999	17.999	0	0	1	1.0998576	-10.553363	220	3	1.11	0.95	92.7163	0.0000	0.0000	0.0000;
	107	2	7.999	14.999	0	0	1	1.0997476	-10.555772	220	3	1.11	0.95	92.7189	0.0002	0.0000	0.0000;
	108	1	52.726	17.138	0	0	1	1.0956641	-11.948298	220	3	1.11	0.95	93.7112	-0.5284	0.0000	0.0000;
	109	1	56.444	10.902	0	0	1	1.095698	-11.961463	220	3	1.11	0.95	93.7153	-0.5333	0.0000	0.0000;
	110	1	0	0	0	0	1	1.093902	-13.568177	220	3	1.11	0.95	94.7342	-0.0907	0.0000	0.0000;
	111	1	0	0	0	0	1	1.0939286	-11.62069	220	3	1.11	0.95	93.5850	0.3044	0.0000	0.0000;
	112	1	0	0	0	0	1	1.0939386	-11.625092	220	3	1.11	0.95	93.5870	0.3038	0.0000	0.0000;
	113	1	0	0	0	0	1	1.0928751	-12.746764	220	3	1.11	0.95	94.3987	0.1266	0.0000	0.0000;
	114	1	0	0	0	0	1	1.0929005	-12.742224	220	3	1.11	0.95	94.3959	0.1257	0.0000	0.0000;
	115	1	0	0	0	0	1	1.040122	-9.1865909	400	3	1.05	0.95	92.5453	-0.1809	0.0000	0.0000;
	116	2	0	0	0	0	1	1.0957717	-12.485668	220	3	1.11	0.95	94.0393	-0.1175	0.0000	0.0000;
	117	2	7.999	14.999	0	0	1	1.0957311	-12.476078	220	3	1.11	0.95	94.0370	-0.1170	0.0000	0.0000;
	118	2	5.499	9.999	0	0	1	1.0999227	-13.165235	220	3	1.11	0.95	94.4918	-0.2638	0.0000	0.0000;
	119	1	0	0	0	0	1	1.0999096	-13.17059	220	3	1.11	0.95	94.4941	-0.2640	0.0000	0.0000;
	120	1	0	0	0	0	1	1.042963	-13.58135	400	3	1.05	0.95	94.4477	-0.9211	0.0000	0.0000;
	121	1	0	0	0	0	1	1.0429996	-13.574265	400	3	1.05	0.95	94.4444	-0.9215	0.0000	0.0000;
	122	1	0	0	0	0	1	1.0434218	-9.342175	400	3	1.05	0.95	92.6467	-0.2911	0.0000	0.0000;
	123	1	0	0	0	0	1	1.0434566	-9.340653	400	3	1.05	0.95	92.6469	-0.2918	0.0000	0.0000;
	124	1	0	0	0	0	1	1.0942312	-13.598007	220	3	1.11	0.95	94.7830	-0.1073	0.0000	0.0000;
	125	2	19.213	21.474	0	0	1	1.11	-9.7385765	220	3	1.11	0.95	92.2959	0.0000	312.7178	0.0000;
	126	2	30.672	33.602	0	0	1	1.1099486	-9.7467082	220	3	1.11	0.95	92.3016	0.0014	0.0000	0.0000;
	127	2	27.999	65.999	0	0	1	1.0401443	-8.1111678	400	3	1.05	0.95	92.1616	-0.1196	0.0000	0.0000;
	128	1	0	0	0	0	1	1.0401433	-8.1210678	400	3	1.05	0.95	92.1654	-0.1198	0.0000	0.0000;
	129	1	0	0	0	0	1	1.0980766	-9.3931842	220	3	1.11	0.95	92.5556	-0.3920	0.0000	0.0000;
	130	1	0	0	0	0	1	1.0980814	-9.3920832	220	3	1.11	0.95	92.5538	-0.3914	0.0000	0.0000;
	131	1	0	0	0	0	1	1.0993526	-9.2111481	220	3	1.11	0.95	92.4642	-0.3832	0.0000	0.0000;
	132	2	271.999	-62.001	0	0	1	1.0990964	-18.413405	220	3	1.11	0.95	96.8483	-0.2373	0.0000	0.0000;
	133	2	266.5	-24.8	0	0	1	1.097002	-18.398163	220	3	1.11	0.95	96.8472	-0.1873	0.0000	0.0000;
	134	2	14.931	12.88	0	0	1	1.1065123	-13.462082	220	4	1.11	0.95	94.6117	-0.0000	0.0000	0.0000;
	135	2	8.013	6.525	0	0	1	1.1064205	-13.470946	220	4	1.11	0.95	94.6144	0.0011	0.0000	0.0000;
	136	1	0	0	0	0	1	1.0815293	-16.24031	220	4	1.11	0.95	95.3127	0.0668	0.0000	0.0000;
	137	1	0	0	0	0	1	1.0845102	-15.737843	220	4	1.11	0.95	95.0213	0.0193	0.0000	0.0000;
	138	1	0	0	0	0	1	1.0450222	-13.350134	400	4	1.05	0.95	93.9007	-0.5766	0.0000	0.0000;
	139	1	0	0	0	0	1	1.0450451	-13.346304	400	4	1.05	0.95	93.8981	-0.5778	0.0000	0.0000;
	140	1	0	0	0	0	1	1.104459	-22.571041	220	4	1.11	0.95	99.9483	-2.0055	0.0000	0.0000;
	141	1	0	0	0	0	1	1.0845379	-24.970176	220	4	1.11	0.95	101.9983	-1.4777	0.0000	0.0000;
	142	1	0	0	0	0	1	1.0845379	-24.970176	220	4	1.11	0.95	101.9983	-1.4777	0.0000	0.0000;
	143	1	0	0	0	0	1	1.0868162	-23.55336	220	4	1.11	0.95	100.4360	-1.3126	0.0000	0.0000;
	144	1	0	0	0	0	1	1.0904594	-14.90911	220	4	1.11	0.95	93.9070	-0.1480	0.0000	0.0000;
	145	1	0	0	0	0	1	1.0904594	-14.90911	220	4	1.11	0.95	93.9070	-0.1480	0.0000	0.0000;
	146	2	55.255	6.955	0	0	1	1.1010599	-16.894759	220	4	1.11	0.95	96.4200	-0.0195	0.0000	0.0000;
	147	2	10.077	8.4	0	0	1	1.1010627	-16.90408	220	4	1.11	0.95	96.4222	-0.0209	0.0000	0.0000;
	148	2	11.5	6.86	0	0	1	1.0847972	-24.077917	220	4	1.11	0.95	101.4573	-1.5655	0.0000	0.0000;
	149	1	4.423	1.347	0	0	1	1.0847555	-24.092279	220	4	1.11	0.95	101.4641	-1.5657	0.0000	0.0000;
	150	2	12.633	6.828	0	0	1	1.0209404	-25.772587	400	4	1.05	0.95	101.8467	-1.7352	0.0000	0.0000;
	151	2	12.397	10.045	0	0	1	1.0209246	-25.77869	400	4	1.05	0.95	101.8493	-1.7356	0.0000	0.0000;
	152	1	0	0	0	0	1	1.0894799	-22.639017	220	4	1.11	0.95	100.3568	-1.5484	0.0000	0.0000;
	153	1	0	0	0	0	1	1.0822243	-21.657901	220	4	1.11	0.95	99.1685	-0.6388	0.0000	0.0000;
	154	1	0	0	0	0	1	1.0822555	-21.651456	220	4	1.11	0.95	99.1650	-0.6388	0.0000	0.0000;
	155	2	33.593	44.976	0	0	1	1.0890716	-14.012337	220	4	1.11	0.95	94.1898	0.0000	0.0000	0.0000;
	156	2	33.832	45.07	0	0	1	1.0889495	-14.067839	220	4	1.11	0.95	94.4125	0.0000	0.0000	0.0000;
	157	1	0	0	0	0	1	1.0890716	-14.012337	220	4	1.11	0.95	94.1898	0.0000	0.0000	0.0000;
	158	1	0	0	0	0	1	1.0340575	-13.036901	400	4	1.05	0.95	94.1427	-0.1131	0.0000	0.0000;
	159	2	8.687	17.49	0	0	1	1.0340329	-13.034686	400	4	1.05	0.95	94.1427	-0.1124	0.0000	0.0000;
	160	1	0	0	0	0	1	1.0842564	-25.032974	220	4	1.11	0.95	102.0466	-1.6448	0.0000	0.0000;
	161	1	0	0	0	0	1	1.0842564	-25.032974	220	4	1.11	0.95	102.0466	-1.6448	0.0000	0.0000;
	162	1	0	0	0	0	1	1.05	-12.564217	400	4	1.05	0.95	93.1599	-2.0147	8269.9647	0.0000;
	163	1	0	0	0	0	1	1.0483545	-11.638085	400	4	1.05	0.95	92.9831	-0.9545	0.0000	0.0000;
	164	1	0	0	0	0	1	1.0483556	-11.644285	400	4	1.05	0.95	92.9864	-0.9533	0.0000	0.0000;
	165	2	5.495	9.587	0	0	1	1.1008249	-17.138713	220	4	1.11	0.95	96.5419	-0.0000	0.0000	0.0000;
	166	2	10.099	4.886	0	0	1	1.1007016	-17.154685	220	4	1.11	0.95	96.5512	0.0012	0.0000	0.0000;
	167	1	14.36	13.623	0	0	1	1.1007966	-17.139982	220	4	1.11	0.95	96.5424	0.0004	0.0000	0.0000;
	168	1	0	0	0	0	1	1.1079282	-28.127364	220	4	1.11	0.95	103.3368	-2.2224	0.0000	0.0000;
	169	1	0	0	0	0	1	1.087324	-25.067011	220	4	1.11	0.95	102.0493	-1.5190	0.0000	0.0000;
	170	1	0	0	0	0	1	1.11	-23.559049	220	4	1.11	0.95	100.5561	-2.7733	11480.4692	0.0000;
	171	1	0	0	0	0	1	1.1098972	-23.558201	220	4	1.11	0.95	100.5570	-2.7618	0.0000	0.0000;
	172	1	0	0	0	0	1	0.96398571	-24.638265	400	4	1.05	0.95	100.9598	-2.1379	0.0000	0.0000;
	173	1	0	0	0	0	1	0.96398571	-24.638265	400	4	1.05	0.95	100.9598	-2.1379	0.0000	0.0000;
	174	1	0	0	0	0	1	1.0696839	-20.949808	220	4	1.11	0.95	99.3692	-0.3413	0.0000	0.0000;
	175	1	0	0	0	0	1	1.0696958	-20.947885	220	4	1.11	0.95	99.3693	-0.3411	0.0000	0.0000;
	176	1	0	0	0	0	1	1.1082501	-23.792603	220	4	1.11	0.95	100.6723	-2.6840	0.0000	0.0000;
	177	1	0	0	0	0	1	1.0859664	-15.678153	220	4	1.11	0.95	94.9201	-0.0123	0.0000	0.0000;
	178	1	0	0	0	0	1	1.0859993	-15.673145	220	4	1.11	0.95	94.9186	-0.0124	0.0000	0.0000;
	179	1	0	0	0	0	1	1.0917114	-14.683654	220	4	1.11	0.95	94.3367	0.0111	0.0000	0.0000;
	180	1	0	0	0	0	1	1.0917114	-14.683654	220	4	1.11	0.95	94.3367	0.0111	0.0000	0.0000;
	181	1	0	0	0	0	1	1.0678356	-21.76123	220	4	1.11	0.95	99.6432	-0.3535	0.0000	0.0000;
	182	1	0	0	0	0	1	1.063868	-24.73491	220	5	1.11	0.95	101.1180	0.8305	0.0000	0.0000;
	183	1	0	0	0	0	1	1.11	-31.694348	220	5	1.11	0.95	104.4421	-1.8081	1861.5694	0.0000;
	184	1	0	0	0	0	1	1.0275404	-31.317799	400	5	1.05	0.95	104.1476	-1.2745	0.0000	0.0000;
	185	1	0	0	0	0	1	1.0275436	-31.310859	400	5	1.05	0.95	104.1440	-1.2754	0.0000	0.0000;
	186	1	0	0	0	0	1	1.0179187	-33.636246	400	5	1.05	0.95	105.1032	0.3110	0.0000	0.0000;
	187	1	0	0	0	0	1	1.0179404	-33.643752	400	5	1.05	0.95	105.1071	0.3094	0.0000	0.0000;
	188	1	0	0	0	0	1	1.0778956	-31.850779	220	5	1.11	0.95	105.5364	-0.0614	0.0000	0.0000;
	189	1	0	0	0	0	1	1.0779468	-31.854197	220	5	1.11	0.95	105.5370	-0.0635	0.0000	0.0000;
	190	1	0	0	0	0	1	1.060876	-26.835974	220	5	1.11	0.95	102.4103	1.1790	0.0000	0.0000;
	191	1	0	0	0	0	1	1.0609263	-26.833741	220	5	1.11	0.95	102.4091	1.1774	0.0000	0.0000;
	192	1	0	0	0	0	1	1.0061829	-26.37235	400	5	1.05	0.95	101.7977	1.2095	0.0000	0.0000;
	193	1	0	0	0	0	1	1.0693967	-24.332532	220	5	1.11	0.95	100.9086	0.8349	0.0000	0.0000;
	194	1	0	0	0	0	1	1.0693881	-24.329742	220	5	1.11	0.95	100.9088	0.8356	0.0000	0.0000;
	195	1	0	0	0	0	1	1.0184099	-32.763078	400	5	1.05	0.95	104.9447	0.3712	0.0000	0.0000;
	196	1	0	0	0	0	1	1.0183911	-32.760735	400	5	1.05	0.95	104.9441	0.3718	0.0000	0.0000;
	197	1	0	0	0	0	1	1.0693764	-26.606702	220	5	1.11	0.95	102.9941	0.7578	0.0000	0.0000;
	198	1	0	0	0	0	1	1.0693398	-26.599683	220	5	1.11	0.95	102.9894	0.7586	0.0000	0.0000;
	199	1	0	0	0	0	1	1.0266211	-32.853512	400	5	1.05	0.95	104.7693	-0.7581	0.0000	0.0000;
	200	1	0	0	0	0	1	1.0266502	-32.840632	400	5	1.05	0.95	104.7640	-0.7604	0.0000	0.0000;
...
];

%% generator data
%	bus	Pg	Qg	Qmax	Qmin	Vg	mBase	status	Pmax	Pmin	Pc1	Pc2	Qc1min	Qc1max	Qc2min	Qc2max	ramp_agc	ramp_10	ramp_30	ramp_q	apf	mu_Pmax	mu_Pmin	mu_Qmax	mu_Qmin
mpc.gen = [
	17	140	-10	120	-10	1.09088	233.2	1	200	140	0	0	0	0	0	0	0	0	0	0	0	0.0000	15.5759	0.0000	0.0000;
	18	140	91.8892	120	-10	1.09091	233.2	1	200	140	0	0	0	0	0	0	0	0	0	0	0	0.0000	15.5746	0.0000	0.0000;
	26	0	0	220	-10	1.09091	430.5	0	370	290	0	0	0	0	0	0	0	0	0	0	0	0.0000	0.0000	0.0000	0.0000;
	26	360	104.419	220	-10	1.09091	421.9	1	360	290	0	0	0	0	0	0	0	0	0	0	0	14.8717	0.0000	0.0000	0.0000;
	27	360	-10	220	-10	1.09091	421.9	1	360	290	0	0	0	0	0	0	0	0	0	0	0	14.0299	0.0000	0.0000	0.0000;
	27	370	80.9866	220	-10	1.09091	430.5	1	370	290	0	0	0	0	0	0	0	0	0	0	0	14.0299	0.0000	0.0000	0.0000;
	27	370	81.5609	220	-10	1.09091	430.5	1	370	290	0	0	0	0	0	0	0	0	0	0	0	14.0299	0.0000	0.0000	0.0000;
	28	0	0	220	-10	1.0325	430.5	0	370	290	0	0	0	0	0	0	0	0	0	0	0	0.0000	0.0000	0.0000	0.0000;
	28	370	-3.4539	220	-10	1.0325	430.5	1	370	290	0	0	0	0	0	0	0	0	0	0	0	15.0767	0.0000	0.0000	0.0000;
	28	370	-3.4539	220	-10	1.0325	430.5	1	370	290	0	0	0	0	0	0	0	0	0	0	0	15.0767	0.0000	0.0000	0.0000;
	29	370	-10	220	-10	1.0325	430.5	1	370	290	0	0	0	0	0	0	0	0	0	0	0	15.0718	0.0000	0.0000	0.0017;
	29	370	-10	220	-10	1.0325	430.5	1	370	290	0	0	0	0	0	0	0	0	0	0	0	15.0718	0.0000	0.0000	0.0017;
	29	370	-10	220	-10	1.0325	430.5	1	370	290	0	0	0	0	0	0	0	0	0	0	0	15.0718	0.0000	0.0000	0.0017;
	43	135	-20	120	-20	1.09091	246.2	1	215	135	0	0	0	0	0	0	0	0	0	0	0	0.0000	7.7972	0.0000	0.6891;
	43	0	0	120	-20	1.09091	275.3	0	247.8	135	0	0	0	0	0	0	0	0	0	0	0	0.0000	0.0000	0.0000	0.0000;
	43	0	0	120	-20	1.09091	275.3	0	247.8	135	0	0	0	0	0	0	0	0	0	0	0	0.0000	0.0000	0.0000	0.0000;
	44	135	-20	120	-20	1.09096	255	1	225	135	0	0	0	0	0	0	0	0	0	0	0	0.0000	7.8012	0.0000	0.6908;
	44	135	-20	120	-20	1.09096	255	1	225	135	0	0	0	0	0	0	0	0	0	0	0	0.0000	7.8012	0.0000	0.6908;
	44	0	0	120	-20	1.09096	255	0	225	135	0	0	0	0	0	0	0	0	0	0	0	0.0000	0.0000	0.0000	0.0000;
	45	0	0	350	-40	1.0325	610.3	0	500	350	0	0	0	0	0	0	0	0	0	0	0	0.0000	0.0000	0.0000	0.0000;
	45	350	-40	350	-40	1.0325	610.3	1	500	350	0	0	0	0	0	0	0	0	0	0	0	0.0000	7.4900	0.0000	0.5862;
	55	130	-20	120	-20	1.09121	255	1	225	130	0	0	0	0	0	0	0	0	0	0	0	0.0000	11.0642	0.0000	1.1741;
	56	130	-20	120	-20	1.09115	255	1	225	130	0	0	0	0	0	0	0	0	0	0	0	0.0000	11.0669	0.0000	1.1766;
	56	0	0	120	-20	1.09115	255	0	225	130	0	0	0	0	0	0	0	0	0	0	0	0.0000	0.0000	0.0000	0.0000;
	57	130	-20	120	-20	1.03336	255	1	225	130	0	0	0	0	0	0	0	0	0	0	0	0.0000	10.8801	0.0000	1.2205;
	58	0	0	120	-20	1.03337	255	0	225	130	0	0	0	0	0	0	0	0	0	0	0	0.0000	0.0000	0.0000	0.0000;
	58	130	-20	120	-20	1.03337	255	1	225	130	0	0	0	0	0	0	0	0	0	0	0	0.0000	10.8784	0.0000	1.2215;
	58	0	0	120	-20	1.03337	255	0	225	130	0	0	0	0	0	0	0	0	0	0	0	0.0000	0.0000	0.0000	0.0000;
	59	63	0	28.8	0	1.08415	69.3	1	63	63	0	0	0	0	0	0	0	0	0	0	0	94.7184	0.0000	0.0000	0.7196;
	78	140	5	105	5	1.09091	248.3	1	225	140	0	0	0	0	0	0	0	0	0	0	0	0.0000	1.4345	0.0000	0.0000;
	78	140	50.0711	105	5	1.09091	248.3	1	225	140	0	0	0	0	0	0	0	0	0	0	0	0.0000	1.4345	0.0000	0.0000;
	79	0	0	105	5	1.09034	243.8	0	220	140	0	0	0	0	0	0	0	0	0	0	0	0.0000	0.0000	0.0000	0.0000;
	79	0	0	105	5	1.09034	248.3	0	225	140	0	0	0	0	0	0	0	0	0	0	0	0.0000	0.0000	0.0000	0.0000;
	79	140	5	105	5	1.09034	248.3	1	225	140	0	0	0	0	0	0	0	0	0	0	0	0.0000	1.1994	0.0000	0.1274;
	82	380	-37	192	-37	1.02993	425.8	1	380	220	0	0	0	0	0	0	0	0	0	0	0	1.2373	0.0000	0.0000	0.2746;
	82	370	-27.698	174	-27.698	1.02993	408.9	1	370	220	0	0	0	0	0	0	0	0	0	0	0	1.2373	0.0000	0.0000	0.2746;
	104	190.653	24.9606	113	-48	1.09091	251.8	1	225	120	0	0	0	0	0	0	0	0	0	0	0	0.0000	0.0000	0.0000	0.0000;
	105	0	0	113	-48	1.09091	251.8	0	225	134	0	0	0	0	0	0	0	0	0	0	0	0.0000	0.0000	0.0000	0.0000;
	106	79	38.0238	90	-5	1.09091	150	1	120	79	0	0	0	0	0	0	0	0	0	0	0	0.0000	1.3737	0.0000	0.0000;
	107	79	-5	90	-5	1.09091	150	1	120	79	0	0	0	0	0	0	0	0	0	0	0	0.0000	1.3711	0.0002	0.0000;
	116	0	0	90	-20	1.09042	150	0	120	90	0	0	0	0	0	0	0	0	0	0	0	0.0000	0.0000	0.0000	0.0000;
	117	70	-20	90	-20	1.09046	150	1	120	70	0	0	0	0	0	0	0	0	0	0	0	0.0000	3.0830	0.0000	0.1170;
	118	80	33	68	33	1.089	129.3	1	110	80	0	0	0	0	0	0	0	0	0	0	0	0.0000	5.0282	0.0000	0.2638;
	125	215	52.0648	113	-11	1.09091	242.9	1	215	160	0	0	0	0	0	0	0	0	0	0	0	1.1359	0.0000	0.0000	0.0000;
	126	225	84	84	-5	1.09082	240.2	1	225	140	0	0	0	0	0	0	0	0	0	0	0	1.1416	0.0000	0.0014	0.0000;
	126	0	0	80	-5	1.09082	229.4	0	215	160	0	0	0	0	0	0	0	0	0	0	0	0.0000	0.0000	0.0000	0.0000;
	127	225	-7.5	79	-7.5	1.02869	238.5	1	225	140	0	0	0	0	0	0	0	0	0	0	0	1.0016	0.0000	0.0000	0.1196;
	127	220	-10	100	-10	1.02869	241.7	1	220	160	0	0	0	0	0	0	0	0	0	0	0	1.0016	0.0000	0.0000	0.1196;
	132	0	0	0	0	1.09091	0	0	0	0	0	0	0	0	0	0	0	0	0	0	0	0.0000	0.0000	0.0000	0.0000;
	132	0	0	0	0	1.09091	0	0	0	0	0	0	0	0	0	0	0	0	0	0	0	0.0000	0.0000	0.0000	0.0000;
	133	0	0	0	0	1.09091	0	0	0	0	0	0	0	0	0	0	0	0	0	0	0	0.0000	0.0000	0.0000	0.0000;
	133	0	0	0	0	1.09091	0	0	0	0	0	0	0	0	0	0	0	0	0	0	0	0.0000	0.0000	0.0000	0.0000;
	134	0	0	90	0	1.08882	150	0	120	102	0	0	0	0	0	0	0	0	0	0	0	0.0000	0.0000	0.0000	0.0000;
	134	120	60.3687	90.001	0	1.08882	150	1	120	100	0	0	0	0	0	0	0	0	0	0	0	2.1817	0.0000	0.0000	0.0000;
	135	0	0	90	0	1.08867	150	0	120	102	0	0	0	0	0	0	0	0	0	0	0	0.0000	0.0000	0.0000	0.0000;
	146	50	-0.001	12	-0.001	1.09012	51.4	1	50	30	0	0	0	0	0	0	0	0	0	0	0	0.0000	0.0000	0.0000	0.0195;
	146	34.2659	-0.001	12	-0.001	1.09012	51.4	1	50	30	0	0	0	0	0	0	0	0	0	0	0	0.0000	0.0000	0.0000	0.0195;
	147	0	0	90	0	1.09011	150	0	120	90	0	0	0	0	0	0	0	0	0	0	0	0.0000	0.0000	0.0000	0.0000;
	148	90	0	120	0	1.09091	252.4	1	222	90	0	0	0	0	0	0	0	0	0	0	0	0.0000	14.5527	0.0000	1.5655;
	148	0	0	120	0	1.09091	237.5	0	205	135	0	0	0	0	0	0	0	0	0	0	0	0.0000	0.0000	0.0000	0.0000;
	148	0	0	120	0	1.09091	237.5	0	205	135	0	0	0	0	0	0	0	0	0	0	0	0.0000	0.0000	0.0000	0.0000;
	148	90	0	120	0	1.09091	252.4	1	222	90	0	0	0	0	0	0	0	0	0	0	0	0.0000	14.5527	0.0000	1.5655;
	150	90	0	120	0	1.03246	252.4	1	222	90	0	0	0	0	0	0	0	0	0	0	0	0.0000	14.1633	0.0000	1.7352;
	151	90	0	120	0	1.0325	252.4	1	222	90	0	0	0	0	0	0	0	0	0	0	0	0.0000	14.1607	0.0000	1.7356;
	151	0	0	120	0	1.0325	252.4	0	222	90	0	0	0	0	0	0	0	0	0	0	0	0.0000	0.0000	0.0000	0.0000;
	155	94	24.7759	120	0	1.09091	263.9	1	235	94	0	0	0	0	0	0	0	0	0	0	0	0.0000	4.6502	0.0000	0.0000;
	155	94	24.7759	120	0	1.09091	263.9	1	235	94	0	0	0	0	0	0	0	0	0	0	0	0.0000	4.6502	0.0000	0.0000;
	155	0	0	120	0	1.09091	237.5	0	205	130	0	0	0	0	0	0	0	0	0	0	0	0.0000	0.0000	0.0000	0.0000;
	155	104	0	120	0	1.09091	287.3	1	261	104	0	0	0	0	0	0	0	0	0	0	0	0.0000	4.6502	0.0000	0.0000;
	156	0	0	120	0	1.09091	237.5	0	205	130	0	0	0	0	0	0	0	0	0	0	0	0.0000	0.0000	0.0000	0.0000;
	156	130	0	120	0	1.09091	237.5	1	205	130	0	0	0	0	0	0	0	0	0	0	0	0.0000	4.4275	0.0000	0.0000;
	156	120	48.0433	120	0	1.09091	238.4	1	206	120	0	0	0	0	0	0	0	0	0	0	0	0.0000	4.4275	0.0000	0.0000;
	156	120	0	120	0	1.09091	238.4	1	206	120	0	0	0	0	0	0	0	0	0	0	0	0.0000	4.4275	0.0000	0.0000;
	159	120	0	120	0	1.00535	238.4	1	206	120	0	0	0	0	0	0	0	0	0	0	0	0.0000	4.6973	0.0000	0.1124;
	165	200	64.1328	120	0	1.09084	233.2	1	200	150	0	0	0	0	0	0	0	0	0	0	0	7.3219	0.0000	0.0000	0.0000;
	165	0	0	120	0	1.09084	233.2	0	200	150	0	0	0	0	0	0	0	0	0	0	0	0.0000	0.0000	0.0000	0.0000;
	166	200	0	120	0	1.09091	233.2	1	200	150	0	0	0	0	0	0	0	0	0	0	0	7.3312	0.0000	0.0012	0.0000;
	165	0	0	120	0	1.09084	233.2	0	200	150	0	0	0	0	0	0	0	0	0	0	0	0.0000	0.0000	0.0000	0.0000;
	205	0	73.1915	80	-30	1.0325	196.1	1	0	0	0	0	0	0	0	0	0	0	0	0	0	105.9074	0.0000	0.0002	0.0000;
	205	0	-30	80	-30	1.0325	196.1	1	0	0	0	0	0	0	0	0	0	0	0	0	0	105.9074	0.0000	0.0002	0.0000;
	205	0	-30	80	-30	1.0325	196.1	1	0	0	0	0	0	0	0	0	0	0	0	0	0	105.9074	0.0000	0.0002	0.0000;
	206	0	-30	80	-30	1.0325	196.1	1	0	0	0	0	0	0	0	0	0	0	0	0	0	105.9064	0.0000	0.0017	0.0000;
	215	37.079	0	20	0	1.08646	58.5	1	37.079	37.079	0	0	0	0	0	0	0	0	0	0	0	94.4391	0.0000	0.0000	2.1719;
	215	33.708	0	20	0	1.08646	53.9	1	33.708	33.708	0	0	0	0	0	0	0	0	0	0	0	94.4391	0.0000	0.0000	2.1719;
	215	33.708	0	20	0	1.08646	53.9	1	33.708	33.708	0	0	0	0	0	0	0	0	0	0	0	94.4391	0.0000	0.0000	2.1719;
	215	15.506	0	20	0	1.08646	30.5	1	15.506	15.506	0	0	0	0	0	0	0	0	0	0	0	94.4391	0.0000	0.0000	2.1719;
	229	5.5	1.5	1.5	0	1.06367	7.3	1	5.5	5.5	0	0	0	0	0	0	0	0	0	0	0	93.6474	0.0000	0.1449	0.0000;
	230	5.5	7	7	0	1.06392	10	1	5.5	5.5	0	0	0	0	0	0	0	0	0	0	0	93.6442	0.0000	0.1324	0.0000;
	239	3	8	8	0	1.03337	15.4	1	3	3	0	0	0	0	0	0	0	0	0	0	0	98.9912	0.0000	0.4628	0.0000;
	246	370	135.153	220	-14	1.03502	430.5	1	370	290	0	0	0	0	0	0	0	0	0	0	0	14.3966	0.0000	0.0000	0.0000;
	291	2	1.18695	2	0	1.06439	3.2	1	2	2	0	0	0	0	0	0	0	0	0	0	0	96.0463	0.0000	0.0000	0.0000;
	294	2	2	2	0	1.05278	4.8	1	2	2	0	0	0	0	0	0	0	0	0	0	0	98.8780	0.0000	0.0223	0.0000;
	306	9.167	7	7	0	1.05332	24	1	9.167	9.167	0	0	0	0	0	0	0	0	0	0	0	93.5638	0.0000	0.3806	0.0000;
	306	16.296	7	7	0	1.05332	27.9	1	16.296	16.296	0	0	0	0	0	0	0	0	0	0	0	93.5638	0.0000	0.3806	0.0000;
	306	11.204	7.617	7.617	6	1.05332	31	1	11.204	11.204	0	0	0	0	0	0	0	0	0	0	0	93.5638	0.0000	0.3806	0.0000;
	306	9.167	7	7	0	1.05332	26.9	1	9.167	9.167	0	0	0	0	0	0	0	0	0	0	0	93.5638	0.0000	0.3806	0.0000;
	306	9.167	7.929	7.929	0	1.05332	28.1	1	9.167	9.167	0	0	0	0	0	0	0	0	0	0	0	93.5638	0.0000	0.3806	0.0000;
	307	36.5	15	15	0	1.05854	57	1	36.5	36.5	0	0	0	0	0	0	0	0	0	0	0	93.6380	0.0000	0.1551	0.0000;
	307	36.5	15	15	0	1.05854	57	1	36.5	36.5	0	0	0	0	0	0	0	0	0	0	0	93.6380	0.0000	0.1551	0.0000;
	308	32	15	15	0	1.067	36.7	1	32	32	0	0	0	0	0	0	0	0	0	0	0	93.0280	0.0000	0.0000	0.0000;
	308	40	13.385	16.829	0	1.067	57.5	1	40	40	0	0	0	0	0	0	0	0	0	0	0	93.0280	0.0000	0.0000	0.0000;
	310	35	20	20	0	1.07303	53.9	1	35	35	0	0	0	0	0	0	0	0	0	0	0	92.3616	0.0000	0.2446	0.0000;
	310	75	25.599	25.599	0	1.07303	103.2	1	75	75	0	0	0	0	0	0	0	0	0	0	0	92.3616	0.0000	0.2446	0.0000;
	311	45	36.9252	40	0	1.06272	64	1	45	45	0	0	0	0	0	0	0	0	0	0	0	92.6966	0.0000	0.0000	0.0000;
	319	2	3	3	0	1.07001	4.1	1	2	2	0	0	0	0	0	0	0	0	0	0	0	92.5697	0.0000	0.3046	0.0000;
	345	1	1	1	0	1.04796	1.9	1	1	1	0	0	0	0	0	0	0	0	0	0	0	98.3369	0.0000	0.2128	0.0000;
	362	40	12	12	0	1.08888	47.8	1	40	40	0	0	0	0	0	0	0	0	0	0	0	97.5443	0.0000	0.8758	0.0000;
	363	40	12	12	0	1.06039	47.8	1	40	40	0	0	0	0	0	0	0	0	0	0	0	97.3376	0.0000	0.2491	0.0000;
	364	0	0	12	0	1.1049	47.8	0	0	0	0	0	0	0	0	0	0	0	0	0	0	0.0000	0.0000	0.0000	0.0000;
	364	46	12	12	0	1.1049	71	1	46	46	0	0	0	0	0	0	0	0	0	0	0	97.1931	0.0000	0.9222	0.0000;
	365	40	12	12	0	1.06981	47.8	1	40	40	0	0	0	0	0	0	0	0	0	0	0	97.1158	0.0000	0.0480	0.0000;
	365	40	12	12	0	1.06981	47.8	1	40	40	0	0	0	0	0	0	0	0	0	0	0	97.1158	0.0000	0.0480	0.0000;
	368	1	1	1	0	1.07107	1.9	1	1	1	0	0	0	0	0	0	0	0	0	0	0	100.4026	0.0000	0.2196	0.0000;
	382	15	10	10	0	1.08182	55.9	1	55	15	0	0	0	0	0	0	0	0	0	0	0	0.0000	16.5255	0.0000	0.0000;
	382	120	39.2284	120	-10	1.08182	255.9	1	226	120	0	0	0	0	0	0	0	0	0	0	0	0.0000	16.5255	0.0000	0.0000;
	383	15	0	10	0	1.10054	55.9	1	55	15	0	0	0	0	0	0	0	0	0	0	0	0.0000	15.6785	0.0000	0.3317;
	386	2.5	2	2	0	1.05805	4.8	1	2.5	2.5	0	0	0	0	0	0	0	0	0	0	0	94.4187	0.0000	0.1994	0.0000;
	395	1	1	1	0	1.06558	1.9	1	1	1	0	0	0	0	0	0	0	0	0	0	0	97.2930	0.0000	0.0918	0.0000;
	421	4	4	4	0	1.04857	7.7	1	4	4	0	0	0	0	0	0	0	0	0	0	0	97.6622	0.0000	0.4569	0.0000;
	426	3	3	3	0	1.07431	4.5	1	3	3	0	0	0	0	0	0	0	0	0	0	0	92.3661	0.0000	0.3703	0.0000;
	431	5	8	8	0	1.08943	13.6	1	5	5	0	0	0	0	0	0	0	0	0	0	0	98.9857	0.0000	0.2846	0.0000;
	440	2	2	2	0	1.0288	3.6	1	2	2	0	0	0	0	0	0	0	0	0	0	0	92.1929	0.0000	0.5449	0.0000;
	447	3.5	0	20	0	1.0498	21.3	1	3.5	3.5	0	0	0	0	0	0	0	0	0	0	0	96.8994	0.0000	0.0000	0.0459;
	447	3.5	0	20	0	1.0498	21.3	1	3.5	3.5	0	0	0	0	0	0	0	0	0	0	0	96.8994	0.0000	0.0000	0.0459;
	463	0	0	2	0	1.0465	4	1	0	0	0	0	0	0	0	0	0	0	0	0	0	97.8817	0.0000	0.0000	0.0795;
	482	1.4	0.7	0.7	0	1.02656	1.7	1	1.4	1.4	0	0	0	0	0	0	0	0	0	0	0	92.8550	0.0000	0.3906	0.0000;
	490	3	3	3	0	1.05535	5.3	1	3	3	0	0	0	0	0	0	0	0	0	0	0	96.2362	0.0000	0.1945	0.0000;
	522	0	0	1	0	1.06929	1.9	1	0	0	0	0	0	0	0	0	0	0	0	0	0	92.7133	0.0000	0.0000	0.5925;
	533	0.5	1	1	0	1.07198	1.9	1	0.5	0.5	0	0	0	0	0	0	0	0	0	0	0	97.7699	0.0000	0.4967	0.0000;
	534	35.89	14	14	0	1.06429	53.9	1	35.89	35.89	0	0	0	0	0	0	0	0	0	0	0	95.3474	0.0000	0.0000	0.0000;
	534	22.086	9.23653	14	0	1.06429	34.9	1	22.086	22.086	0	0	0	0	0	0	0	0	0	0	0	95.3474	0.0000	0.0000	0.0000;
	534	22.086	9.23653	14	0	1.06429	34.9	1	22.086	22.086	0	0	0	0	0	0	0	0	0	0	0	95.3474	0.0000	0.0000	0.0000;
	534	72.469	11.4277	14	0	1.06429	105.9	1	72.469	72.469	0	0	0	0	0	0	0	0	0	0	0	95.3474	0.0000	0.0000	0.0000;
	534	72.469	11.4277	14	0	1.06429	105.9	1	72.469	72.469	0	0	0	0	0	0	0	0	0	0	0	95.3474	0.0000	0.0000	0.0000;
	535	24.573	14.7746	17.5	0	1.05783	36.5	1	24.573	24.573	0	0	0	0	0	0	0	0	0	0	0	95.0714	0.0000	0.0000	0.0000;
	535	23.805	14.8864	17.5	0	1.05783	35.6	1	23.805	23.805	0	0	0	0	0	0	0	0	0	0	0	95.0714	0.0000	0.0000	0.0000;
	535	95.99	15.7424	17.5	0	1.05783	126.2	1	95.99	95.99	0	0	0	0	0	0	0	0	0	0	0	95.0714	0.0000	0.0000	0.0000;
	535	80.631	8.02398	17.5	0	1.05783	106.4	1	80.631	80.631	0	0	0	0	0	0	0	0	0	0	0	95.0714	0.0000	0.0000	0.0000;
	549	1	0.7	0.7	0	1.0394	1.7	1	1	1	0	0	0	0	0	0	0	0	0	0	0	97.3005	0.0000	0.5909	0.0000;
	557	25.724	5.051	5.051	0	1.04037	34.4	1	25.724	25.724	0	0	0	0	0	0	0	0	0	0	0	96.7147	0.0000	0.4648	0.0000;
	557	21.184	5.051	5.051	0	1.04037	28.5	1	21.184	21.184	0	0	0	0	0	0	0	0	0	0	0	96.7147	0.0000	0.4648	0.0000;
	557	19.671	5	5	0	1.04037	26.5	1	19.671	19.671	0	0	0	0	0	0	0	0	0	0	0	96.7147	0.0000	0.4648	0.0000;
	557	22.697	5.051	5.051	0	1.04037	30.4	1	22.697	22.697	0	0	0	0	0	0	0	0	0	0	0	96.7147	0.0000	0.4648	0.0000;
	557	25.724	5.051	5.051	0	1.04037	34.4	1	25.724	25.724	0	0	0	0	0	0	0	0	0	0	0	96.7147	0.0000	0.4648	0.0000;
	558	31.032	5.064	5.064	0	1.03685	34.4	1	31.032	31.032	0	0	0	0	0	0	0	0	0	0	0	96.9085	0.0000	0.5815	0.0000;
	558	31.032	5.064	5.064	0	1.03685	34.4	1	31.032	31.032	0	0	0	0	0	0	0	0	0	0	0	96.9085	0.0000	0.5815	0.0000;
	558	22.817	5	5	0	1.03685	26.5	1	22.817	22.817	0	0	0	0	0	0	0	0	0	0	0	96.9085	0.0000	0.5815	0.0000;
	558	30.119	5.064	5.064	0	1.03685	34.4	1	30.119	30.119	0	0	0	0	0	0	0	0	0	0	0	96.9085	0.0000	0.5815	0.0000;
	581	3	3	3	0	1.0494	5.3	1	3	3	0	0	0	0	0	0	0	0	0	0	0	99.2225	0.0000	0.0572	0.0000;
	594	2.07	0	1.08	0	1.06495	4.4	1	2.07	2.07	0	0	0	0	0	0	0	0	0	0	0	95.9622	0.0000	0.0000	0.5658;
	601	4.05	0	1.8	0	1.06191	4.4	1	4.05	4.05	0	0	0	0	0	0	0	0	0	0	0	96.1134	0.0000	0.0000	0.5785;
	622	110	-0.001	30	-0.001	1.0778	114	1	110	110	0	0	0	0	0	0	0	0	0	0	0	93.5080	0.0000	0.0000	0.3628;
	622	0	0	30	0	1.0778	65.3	0	0	0	0	0	0	0	0	0	0	0	0	0	0	0.0000	0.0000	0.0000	0.0000;
	626	2.25	0	0.9	0	1.07287	2.4	1	2.25	2.25	0	0	0	0	0	0	0	0	0	0	0	94.8395	0.0000	0.0000	0.8354;
	630	4.5	0	2.52	0	1.06945	5.2	1	4.5	4.5	0	0	0	0	0	0	0	0	0	0	0	95.5855	0.0000	0.0000	0.3682;
	631	5.4	0	2.52	0	1.06942	6	1	5.4	5.4	0	0	0	0	0	0	0	0	0	0	0	95.5638	0.0000	0.0000	0.3795;
	655	0.81	0	0.36	0	1.03169	0.9	1	0.81	0.81	0	0	0	0	0	0	0	0	0	0	0	97.6114	0.0000	0.0000	0.1649;
	660	135	31.0861	120	-20	1.08206	255	1	225	135	0	0	0	0	0	0	0	0	0	0	0	0.0000	9.1261	0.0000	0.0000;
	661	135	-20	120	-20	1.08182	255	1	225	135	0	0	0	0	0	0	0	0	0	0	0	0.0000	9.1168	0.0000	0.0008;
	667	1.89	0	0.72	0	1.03727	2	1	1.89	1.89	0	0	0	0	0	0	0	0	0	0	0	97.0908	0.0000	0.0000	0.1969;
	671	7.65	0	2.7	0	1.06812	8.6	1	7.65	7.65	0	0	0	0	0	0	0	0	0	0	0	95.8939	0.0000	0.0000	0.5902;
	673	2.7	0	0.9	0	1.06495	4.4	1	2.7	2.7	0	0	0	0	0	0	0	0	0	0	0	95.8719	0.0000	0.0000	0.5444;
	681	190	0	30	0	1.08024	192.4	1	190	190	0	0	0	0	0	0	0	0	0	0	0	93.9283	0.0000	0.0000	0.7815;
	681	24.998	0	30	0	1.08024	77.5	1	24.998	24.998	0	0	0	0	0	0	0	0	0	0	0	93.9283	0.0000	0.0000	0.7815;
	687	9	0	4.5	0	1.07512	10.1	1	9	9	0	0	0	0	0	0	0	0	0	0	0	94.6651	0.0000	0.0000	0.8043;
	699	5.4	0	2.7	0	1.0746	6	1	5.4	5.4	0	0	0	0	0	0	0	0	0	0	0	94.7284	0.0000	0.0000	0.7189;
	702	0.9	0	0.9	0	1.0721	1.3	1	0.9	0.9	0	0	0	0	0	0	0	0	0	0	0	94.8669	0.0000	0.0000	0.9548;
	712	9	0	2	0	1.07103	9.2	1	9	9	0	0	0	0	0	0	0	0	0	0	0	94.2161	0.0000	0.0000	0.7843;
	718	1.44	0	0.36	0	1.03111	1.5	1	1.44	1.44	0	0	0	0	0	0	0	0	0	0	0	97.6437	0.0000	0.0000	0.1589;
	722	2.25	0	0.9	0	1.06069	2.4	1	2.25	2.25	0	0	0	0	0	0	0	0	0	0	0	96.1198	0.0000	0.0000	0.6776;
	731	1.35	0	0.45	0	1.06199	4.3	1	1.35	1.35	0	0	0	0	0	0	0	0	0	0	0	95.3525	0.0000	0.0000	1.3409;
	736	130	-20	120	-20	1.08182	255	1	225	130	0	0	0	0	0	0	0	0	0	0	0	0.0000	12.1228	0.0000	0.9490;
	740	1.8	0	0	0	1.06599	4.3	1	1.8	1.8	0	0	0	0	0	0	0	0	0	0	0	94.7195	0.0000	0.0000	0.6066;
	747	4.68	0	2.7	0	1.04853	5.4	1	4.68	4.68	0	0	0	0	0	0	0	0	0	0	0	97.8471	0.0000	0.0000	0.2746;
	759	90	0	30	0	1.0699	105.2	1	90	90	0	0	0	0	0	0	0	0	0	0	0	93.9174	0.0000	0.0000	0.6329;
	760	0	0	0	0	1.06824	1.3	0	0	0	0	0	0	0	0	0	0	0	0	0	0	0.0000	0.0000	0.0000	0.0000;
	778	9	0	30	0	1.05918	31.3	1	9	9	0	0	0	0	0	0	0	0	0	0	0	95.4277	0.0000	0.0000	0.6291;
	780	1.26	0	0.63	0	1.07776	1.4	1	1.26	1.26	0	0	0	0	0	0	0	0	0	0	0	93.5136	0.0000	0.0000	0.3631;
	783	6	0	3	0	1.07336	6.7	1	6	6	0	0	0	0	0	0	0	0	0	0	0	94.8328	0.0000	0.0000	0.7772;
	788	2	0	1	0	1.04756	95.9	1	2	2	0	0	0	0	0	0	0	0	0	0	0	97.6750	0.0000	0.0000	0.2928;
	792	0	0	23	0	1.05369	71.8	0	0	0	0	0	0	0	0	0	0	0	0	0	0	0.0000	0.0000	0.0000	0.0000;
	792	0	0	23	0	1.05369	71.8	0	0	0	0	0	0	0	0	0	0	0	0	0	0	0.0000	0.0000	0.0000	0.0000;
	792	0	0	11	0	1.05369	23.7	0	0	0	0	0	0	0	0	0	0	0	0	0	0	0.0000	0.0000	0.0000	0.0000;
	792	0	0	10	0	1.05369	23.3	0	0	0	0	0	0	0	0	0	0	0	0	0	0	0.0000	0.0000	0.0000	0.0000;
	803	0	0	10	0	1.08195	55.9	1	55	0	0	0	0	0	0	0	0	0	0	0	0	0.0000	16.4810	0.0000	0.9588;
	804	0	0	10	0	1.07278	120.4	1	120	0	0	0	0	0	0	0	0	0	0	0	0	0.0000	15.5620	0.0000	0.4856;
	809	0	0	0	0	1.07004	3.3	0	0	0	0	0	0	0	0	0	0	0	0	0	0	0.0000	0.0000	0.0000	0.0000;
	815	2.7	0	1.62	0	1.07164	3.1	1	2.7	2.7	0	0	0	0	0	0	0	0	0	0	0	95.3537	0.0000	0.0000	0.5128;
	834	0.9	0	0	0	1.05238	1.5	1	0.9	0.9	0	0	0	0	0	0	0	0	0	0	0	96.0748	0.0000	0.0000	1.4300;
	840	25	0	5.592	0	1.05932	51.3	1	25	25	0	0	0	0	0	0	0	0	0	0	0	95.1811	0.0000	0.0000	0.3013;
	840	25	0	5.592	0	1.05932	51.3	1	25	25	0	0	0	0	0	0	0	0	0	0	0	95.1811	0.0000	0.0000	0.3013;
	844	1.9	0.311	0.311	0	1.07659	3.5	1	1.9	1.9	0	0	0	0	0	0	0	0	0	0	0	95.2264	0.0000	0.0822	0.0000;
	848	3.011	0.011	0.011	0	1.05907	5.6	1	3.011	3.011	0	0	0	0	0	0	0	0	0	0	0	96.1546	0.0000	0.3529	0.0000;
	854	7	0.932	0.932	0	1.06201	14.5	1	7	7	0	0	0	0	0	0	0	0	0	0	0	93.9545	0.0000	0.5757	0.0000;
	873	68	7.82938	41.2	0	1.08182	87.7	1	68	68	0	0	0	0	0	0	0	0	0	0	0	91.9612	0.0000	0.0000	0.0000;
	876	0	0	0	0	1.0397	1.9	0	0	0	0	0	0	0	0	0	0	0	0	0	0	0.0000	0.0000	0.0000	0.0000;
	896	0	0	45	-10	1.06882	65.8	0	0	0	0	0	0	0	0	0	0	0	0	0	0	0.0000	0.0000	0.0000	0.0000;
	896	0	0	45	-10	1.06882	71.1	0	0	0	0	0	0	0	0	0	0	0	0	0	0	0.0000	0.0000	0.0000	0.0000;
	896	40	45	45	-10	1.06882	71.1	1	40	40	0	0	0	0	0	0	0	0	0	0	0	93.1233	0.0000	0.1059	0.0000;
	902	0.111	0.011	0.011	0	1.0143	0.3	1	0.111	0.111	0	0	0	0	0	0	0	0	0	0	0	97.5834	0.0000	0.4069	0.0000;
...
];

%% branch data
%	fbus	tbus	r	x	b	rateA	rateB	rateC	ratio	angle	status	angmin	angmax	Pf	Qf	Pt	Qt	mu_Sf	mu_St	mu_angmin	mu_angmax
mpc.branch = [
	7	8	0.00064	0.0305	0	400	400	400	1.0435	-0.6	1	-360	360	-130.7862	19.5085	130.8909	-14.5189	0.0000	0.0000	0.0000	0.0000;
	26	28	0.00036	0.02519	0	500	500	500	1.0627	0	1	-360	360	-91.5187	-16.1344	91.5472	18.1304	0.0000	0.0000	0.0000	0.0000;
	27	29	0.00036	0.02519	0	500	500	500	1.0623	0	1	-360	360	161.3265	-13.9254	-161.2400	19.9751	0.0000	0.0000	0.0000	0.0000;
	40	42	0.00034	0.02097	0	500	500	500	1.1011	0	1	-360	360	3.9348	-88.3422	-3.9086	89.9559	0.0000	0.0000	0.0000	0.0000;
	43	46	0.00034	0.02097	0	500	500	500	1.0733	0	1	-360	360	-7.1846	-44.4992	7.1912	44.9060	0.0000	0.0000	0.0000	0.0000;
	55	57	0.00081	0.03	0	400	400	400	1.0547	0	1	-360	360	22.3163	-11.7790	-22.3115	11.9568	0.0000	0.0000	0.0000	0.0000;
	90	92	0.00075	0.02444	-0.00832	330	330	330	1.0508	0	1	-360	360	-171.5483	0.1816	171.7494	7.2889	0.0000	0.0000	0.0000	0.0000;
	91	93	0.00075	0.02469	-0.008	330	330	330	1.0499	0	1	-360	360	-169.4920	3.9745	169.6881	3.3624	0.0000	0.0000	0.0000	0.0000;
	125	128	0.0005	0.02875	-0.016	400	400	400	1.0677	0	1	-360	360	-106.1437	2.3444	106.1958	2.3832	0.0000	0.0000	0.0000	0.0000;
	149	150	0.00064	0.0305	0	400	400	400	1.0568	0	1	-360	360	101.1188	17.7763	-101.0548	-14.7247	0.0000	0.0000	0.0000	0.0000;
	155	158	0.000232	0.023	0	500	500	500	1.049	0	1	-360	360	-79.2580	20.2632	79.2724	-18.8351	0.0000	0.0000	0.0000	0.0000;
	156	159	0.000232	0.023	0	500	500	500	1.0479	0	1	-360	360	-83.9890	24.8754	84.0054	-23.2412	0.0000	0.0000	0.0000	0.0000;
	170	172	0.00035	0.02375	0	500	500	500	1.195	0	1	-360	360	68.9814	-137.6853	-68.8852	144.2135	0.0000	0.0000	0.0000	0.0000;
	183	184	0.00059	0.03093	0	400	400	400	1.0847	0	1	-360	360	-22.5991	-13.4751	22.6030	13.6796	0.0000	0.0000	0.0000	0.0000;
	190	192	0.0004	0.03	0	500	500	500	1.0485	0	1	-360	360	-27.2002	19.4303	27.2046	-19.1028	0.0000	0.0000	0.0000	0.0000;
	2735	158	0.00031	0.00338	0.0992	1386	1386	1386	0	0	1	-360	360	35.2997	-63.9175	-35.2861	53.4775	0.0000	0.0000	0.0000	0.0000;
	2735	159	0.00031	0.00338	0.0992	1386	1386	1386	0	0	1	-360	360	34.1563	-63.0625	-34.1432	52.6170	0.0000	0.0000	0.0000	0.0000;
	2736	68	0.014341	0.083531	0.126034	415	415	415	0	0	1	-360	360	125.0000	-21.4501	-123.0761	17.8102	0.0000	0.0000	0.0000	0.0000;
	2734	76	0.01219	0.070659	0.117418	412	412	412	0	0	1	-360	360	135.4377	-13.4321	-133.6032	9.8196	0.0000	0.0000	0.0000	0.0000;
	2734	105	0.011781	0.07087	0.116838	412	412	412	0	0	1	-360	360	-66.4797	4.2193	66.9183	-15.8608	0.0000	0.0000	0.0000	0.0000;
	2739	200	1e-05	9e-05	0	924	924	924	0	0	1	-360	360	200.0000	0.0000	-199.9962	0.0342	0.0000	0.0000	0.0000	0.0000;
	128	2732	0.0015	0.01469	0.40384	1386	1386	1386	0	0	0	-360	360	0.0000	0.0000	0.0000	0.0000	0.0000	0.0000	0.0000	0.0000;
	127	2733	0.001419	0.014675	0.4896	1386	1386	1386	0	0	1	-360	360	332.3747	56.8229	-330.8350	-93.0950	0.0000	0.0000	0.0000	0.0000;
	2737	148	0.001651	0.015909	0.046948	373	373	373	0	0	1	-360	360	2.9029	-3.8299	-2.9027	-1.6930	0.0000	0.0000	0.0000	0.0000;
	2737	149	0.001651	0.015909	0.046948	373	373	373	0	0	1	-360	360	4.7661	-3.7381	-4.7658	-1.7827	0.0000	0.0000	0.0000	0.0000;
	2738	48	0.00188	0.02287	0.6432	831	831	831	0	0	1	-360	360	-144.7495	-105.1483	145.2334	44.2856	0.0000	0.0000	0.0000	0.0000;
	2738	49	0.00188	0.02287	0.6432	831	831	831	0	0	1	-360	360	-144.2975	-105.0917	144.7788	44.1994	0.0000	0.0000	0.0000	0.0000;
	82	2732	0.003519	0.039313	1.0336	1621	1621	1621	0	0	1	-360	360	228.8957	-14.8715	-227.1500	-76.2490	0.0000	0.0000	0.0000	0.0000;
	43	23	0.01345	0.081141	0.141134	339	339	339	0	0	1	-360	360	92.2926	8.2273	-91.3117	-19.0057	0.0000	0.0000	0.0000	0.0000;
	26	90	0.009091	0.062401	0.111417	457	457	457	0	0	1	-360	360	110.6951	-4.2660	-109.7896	-3.1242	0.0000	0.0000	0.0000	0.0000;
	27	91	0.00868	0.06405	0.096994	457	457	457	0	0	1	-360	360	218.1000	-6.8325	-214.7490	19.7099	0.0000	0.0000	0.0000	0.0000;
	146	30	0.016961	0.123659	0.196988	373	373	373	0	0	1	-360	360	21.4901	3.5136	-21.3921	-26.2411	0.0000	0.0000	0.0000	0.0000;
	135	34	0.00512	0.02618	0.029621	335	335	335	0	0	1	-360	360	-132.9404	52.9750	133.8050	-52.1590	0.0000	0.0000	0.0000	0.0000;
	134	20	0.01068	0.061961	0.094961	415	415	415	0	0	1	-360	360	-177.2180	45.5648	180.1877	-39.8918	0.0000	0.0000	0.0000	0.0000;
	165	21	0.014651	0.105891	0.170852	373	373	373	0	0	1	-360	360	29.4420	-3.6395	-29.3318	-16.0800	0.0000	0.0000	0.0000	0.0000;
	41	109	0.01488	0.08161	0.114805	347	347	347	0	0	1	-360	360	-33.4310	18.8410	33.6471	-31.6187	0.0000	0.0000	0.0000	0.0000;
	40	91	0.011159	0.07231	0.103673	362	362	362	0	0	1	-360	360	-128.8438	33.2233	130.4895	-35.2264	0.0000	0.0000	0.0000	0.0000;
	179	83	0.008616	0.077645	0.122239	373	373	373	0	0	1	-360	360	-119.0080	-8.0704	120.0319	2.5516	0.0000	0.0000	0.0000	0.0000;
	203	166	0.01176	0.068289	0.102802	362	362	362	0	0	1	-360	360	-209.5644	-32.0546	214.3043	47.6610	0.0000	0.0000	0.0000	0.0000;
	194	166	0.016818	0.089091	0.129935	400	400	400	0	0	1	-360	360	-164.3078	-3.6528	168.2802	9.3951	0.0000	0.0000	0.0000	0.0000;
	193	165	0.013843	0.087025	0.134842	427	427	427	0	0	1	-360	360	-169.5575	-8.7106	173.0377	14.7085	0.0000	0.0000	0.0000	0.0000;
	207	168	0.01676	0.097169	0.148685	274	274	274	0	0	1	-360	360	-84.9454	0.4080	85.9559	-12.6812	0.0000	0.0000	0.0000	0.0000;
	43	12	0.01269	0.074979	0.130196	377	377	377	0	0	1	-360	360	101.2786	10.2537	-100.1652	-19.0721	0.0000	0.0000	0.0000	0.0000;
	198	18	0.014091	0.10413	0.15972	373	373	373	0	0	1	-360	360	-156.6517	-9.4214	159.6757	12.9579	0.0000	0.0000	0.0000	0.0000;
	100	55	0.003719	0.0438	0.100962	457	457	457	0	0	1	-360	360	-52.9870	9.7533	53.0814	-20.7587	0.0000	0.0000	0.0000	0.0000;
	163	82	0.00194	0.02056	0.51584	1316	1316	1316	0	0	1	-360	360	-471.3721	57.8972	475.4255	-71.4202	0.0000	0.0000	0.0000	0.0000;
	45	9	0.0015	0.01506	0.4032	1386	1386	1386	0	0	1	-360	360	211.2389	-19.1083	-210.6111	-17.4564	0.0000	0.0000	0.0000	0.0000;
	185	151	0.00294	0.03463	0.9216	693	693	693	0	0	1	-360	360	-287.1034	9.4706	289.4927	-78.0093	0.0000	0.0000	0.0000	0.0000;
	121	57	0.00169	0.01994	0.50624	831	831	831	0	0	1	-360	360	4.0224	-11.8035	-4.0183	-43.0574	0.0000	0.0000	0.0000	0.0000;
	29	93	0.00137	0.01625	0.41184	1386	1386	1386	0	0	1	-360	360	264.8891	-46.5822	-264.0074	11.7266	0.0000	0.0000	0.0000	0.0000;
	28	123	0.00231	0.02769	0.70144	1386	1386	1386	0	0	1	-360	360	339.7898	-33.5056	-337.3628	-14.1397	0.0000	0.0000	0.0000	0.0000;
	25	192	0.00207	0.02474	0.664	831	831	831	0	0	1	-360	360	634.5786	20.9920	-626.5189	7.1223	0.0000	0.0000	0.0000	0.0000;
	120	64	0.0015	0.01788	0.4512	831	831	831	0	0	1	-360	360	133.5512	-13.0992	-133.3034	-32.8571	0.0000	0.0000	0.0000	0.0000;
	122	65	0.00469	0.05544	1.4048	831	831	831	0	0	0	-360	360	0.0000	0.0000	0.0000	0.0000	0.0000	0.0000	0.0000	0.0000;
	82	31	0.00331	0.03425	0.85888	1150	1150	1150	0	0	1	-360	360	-60.0926	-54.5537	60.2040	-38.3937	0.0000	0.0000	0.0000	0.0000;
	92	28	0.00219	0.02369	0.59584	1316	1316	1316	0	0	1	-360	360	-180.0255	-7.9135	180.6822	-50.5420	0.0000	0.0000	0.0000	0.0000;
	10	4	0.01674	0.09711	0.144232	461	461	461	0	0	1	-360	360	-167.3435	8.7064	171.4308	-2.0450	0.0000	0.0000	0.0000	0.0000;
	30	11	0.0057	0.0407	0.06021	373	373	373	0	0	1	-360	360	-55.2915	15.9508	55.4592	-21.7567	0.0000	0.0000	0.0000	0.0000;
	33	4	0.004419	0.032229	0.049852	392	392	392	0	0	1	-360	360	185.4744	-15.8175	-184.2125	18.9979	0.0000	0.0000	0.0000	0.0000;
	17	7	0.014591	0.11219	0.165528	427	427	427	0	0	1	-360	360	-35.9629	16.8957	36.2059	-34.6873	0.0000	0.0000	0.0000	0.0000;
	21	10	0.01211	0.087419	0.140166	373	373	373	0	0	1	-360	360	-36.7637	15.2051	36.9577	-30.2649	0.0000	0.0000	0.0000	0.0000;
	26	5	0.009773	0.050516	0.088959	377	377	377	0	0	1	-360	360	135.9321	-2.7241	-134.4644	-0.5259	0.0000	0.0000	0.0000	0.0000;
	17	3	0.01068	0.07895	0.122597	274	274	274	0	0	1	-360	360	109.2998	20.5830	-108.1777	-26.7683	0.0000	0.0000	0.0000	0.0000;
	26	19	0.0057	0.039521	0.075533	480	480	480	0	0	1	-360	360	131.5232	6.1613	-130.7166	-9.7862	0.0000	0.0000	0.0000	0.0000;
	27	20	0.0057	0.039521	0.075533	480	480	480	0	0	1	-360	360	309.4384	-5.0762	-305.0083	26.5683	0.0000	0.0000	0.0000	0.0000;
	11	6	0.00525	0.03988	0.061952	373	373	373	0	0	1	-360	360	-19.8790	-7.3080	19.8975	0.2547	0.0000	0.0000	0.0000	0.0000;
	32	11	0.00093	0.00651	0.011132	373	373	373	0	0	1	-360	360	-47.7604	-15.9750	47.7806	14.8285	0.0000	0.0000	0.0000	0.0000;
	23	12	0.00205	0.01326	0.022429	415	415	415	0	0	1	-360	360	7.8477	0.2168	-7.8466	-2.8091	0.0000	0.0000	0.0000	0.0000;
	34	5	0.007831	0.043	0.04962	335	335	335	0	0	1	-360	360	-134.2697	30.5649	135.5091	-29.7529	0.0000	0.0000	0.0000	0.0000;
	19	4	0.00293	0.01599	0.024781	362	362	362	0	0	1	-360	360	104.4125	-6.9046	-104.1477	5.3574	0.0000	0.0000	0.0000	0.0000;
	26	1	0.00155	0.01169	0.018198	747	747	747	0	0	1	-360	360	44.8033	79.3287	-44.6966	-80.7450	0.0000	0.0000	0.0000	0.0000;
	27	2	0.00155	0.01169	0.018198	747	747	747	0	0	1	-360	360	49.3175	49.5813	-49.2545	-51.3368	0.0000	0.0000	0.0000	0.0000;
	27	33	0.003841	0.028531	0.045883	392	392	392	0	0	1	-360	360	276.8127	6.7403	-274.4211	5.4207	0.0000	0.0000	0.0000	0.0000;
	24	33	2e-06	2.1e-05	0	392	392	392	0	0	1	-360	360	-88.9466	-10.3954	88.9467	10.3967	0.0000	0.0000	0.0000	0.0000;
	25	9	0.00298	0.03417	0.93504	831	831	831	0	0	1	-360	360	-145.8140	-58.7632	146.4249	-32.5209	0.0000	0.0000	0.0000	0.0000;
	28	25	0.00358	0.04262	1.0944	1386	1386	1386	0	0	1	-360	360	582.0373	25.3995	-570.7654	-8.3829	0.0000	0.0000	0.0000	0.0000;
	14	29	0.00336	0.03977	1.02163	1316	1316	1316	0	0	1	-360	360	-410.9030	-48.2572	416.3057	2.4121	0.0000	0.0000	0.0000	0.0000;
	8	15	0.00299	0.03675	0.9184	1358	1358	1358	0	0	1	-360	360	62.2043	-79.5192	-62.0684	-17.0724	0.0000	0.0000	0.0000	0.0000;
	8	14	0.00112	0.01329	0.341248	1358	1358	1358	0	0	1	-360	360	-241.6128	43.5618	242.2696	-71.7752	0.0000	0.0000	0.0000	0.0000;
	31	29	0.00063	0.00749	0.392256	1358	1358	1358	0	0	1	-360	360	-254.8746	10.6866	255.2524	-49.3346	0.0000	0.0000	0.0000	0.0000;
	63	59	0.010479	0.060969	0.092047	316	316	316	0	0	1	-360	360	9.2100	4.8694	-9.1932	-15.7853	0.0000	0.0000	0.0000	0.0000;
	61	56	0.00882	0.065641	0.100662	274	274	274	0	0	1	-360	360	-20.8710	14.6025	20.9337	-26.2863	0.0000	0.0000	0.0000	0.0000;
	67	35	0.011219	0.065581	0.098349	274	274	274	0	0	1	-360	360	-1.7278	-10.5456	1.7301	-1.1576	0.0000	0.0000	0.0000	0.0000;
	51	35	0.01163	0.07031	0.105802	377	377	377	0	0	1	-360	360	-6.3288	-16.8885	6.3440	4.4279	0.0000	0.0000	0.0000	0.0000;
	59	43	0.00545	0.040211	0.066986	446	446	446	0	0	1	-360	360	-55.5158	-17.3221	55.6652	10.4004	0.0000	0.0000	0.0000	0.0000;
	60	44	0.00545	0.040211	0.066986	446	446	446	0	0	1	-360	360	-56.0510	-16.9280	56.2027	10.0227	0.0000	0.0000	0.0000	0.0000;
	60	35	0.00837	0.04868	0.073481	419	419	419	0	0	1	-360	360	13.0265	-11.9692	-13.0105	3.3032	0.0000	0.0000	0.0000	0.0000;
	68	52	0.003159	0.02076	0.03146	415	415	415	0	0	1	-360	360	66.0756	-15.3216	-65.9535	12.4201	0.0000	0.0000	0.0000	0.0000;
	52	39	0.006979	0.051961	0.079666	373	373	373	0	0	1	-360	360	34.8072	-8.8532	-34.7344	0.0104	0.0000	0.0000	0.0000	0.0000;
	37	56	0.00374	0.027831	0.042689	274	274	274	0	0	1	-360	360	-65.6291	-4.2180	65.7647	0.1367	0.0000	0.0000	0.0000	0.0000;
	38	36	0.00769	0.057271	0.087894	373	373	373	0	0	1	-360	360	36.8014	7.6028	-36.7032	-17.2362	0.0000	0.0000	0.0000	0.0000;
	55	38	0.00556	0.04145	0.063598	427	427	427	0	0	1	-360	360	44.3018	-1.8668	-44.2103	-5.0344	0.0000	0.0000	0.0000	0.0000;
	67	37	0.004521	0.03368	0.051691	392	392	392	0	0	1	-360	360	-35.6137	0.1493	35.6624	-5.9312	0.0000	0.0000	0.0000	0.0000;
	67	66	0.00151	0.008781	0.013165	377	377	377	0	0	1	-360	360	37.3415	10.3963	-37.3222	-11.8461	0.0000	0.0000	0.0000	0.0000;
	62	43	0.00574	0.042831	0.065727	446	446	446	0	0	1	-360	360	-39.6658	-1.3958	39.7411	-5.9634	0.0000	0.0000	0.0000	0.0000;
	63	44	0.00707	0.045409	0.069309	347	347	347	0	0	1	-360	360	-37.9955	-0.7859	38.0809	-7.0176	0.0000	0.0000	0.0000	0.0000;
	62	40	0.01213	0.062151	0.093712	347	347	347	0	0	1	-360	360	-27.1721	-22.7653	27.2760	11.8838	0.0000	0.0000	0.0000	0.0000;
	61	41	0.002479	0.017979	0.027588	373	373	373	0	0	1	-360	360	-69.1257	-28.6567	69.2377	26.0888	0.0000	0.0000	0.0000	0.0000;
	47	40	0.002401	0.01494	0.022525	377	377	377	0	0	1	-360	360	-61.7512	-0.6084	61.8257	-1.7003	0.0000	0.0000	0.0000	0.0000;
	50	46	0.00167	0.0189	0.54176	1358	1358	1358	0	0	1	-360	360	-48.8272	-46.7763	48.8700	-10.2688	0.0000	0.0000	0.0000	0.0000;
	58	54	0.00109	0.01277	0.34176	1358	1358	1358	0	0	1	-360	360	56.0421	2.1059	-56.0062	-38.5337	0.0000	0.0000	0.0000	0.0000;
	42	58	0.002259	0.026439	0.70784	1358	1358	1358	0	0	1	-360	360	3.9086	-89.9559	-3.8488	15.0949	0.0000	0.0000	0.0000	0.0000;
	64	58	0.00094	0.01097	0.29376	1552	1552	1552	0	0	1	-360	360	-209.7505	-1.1477	210.1353	-26.1123	0.0000	0.0000	0.0000	0.0000;
	48	65	0.00113	0.01406	0.37488	831	831	831	0	0	1	-360	360	-313.2957	-67.5605	314.3687	40.8390	0.0000	0.0000	0.0000	0.0000;
	53	45	0.00176	0.02144	0.57344	1358	1358	1358	0	0	1	-360	360	-62.6245	-4.9449	62.6996	-55.5314	0.0000	0.0000	0.0000	0.0000;
	96	125	0.004876	0.033616	0.059609	446	446	446	0	0	1	-360	360	-48.1843	-10.1963	48.2786	3.5297	0.0000	0.0000	0.0000	0.0000;
	75	106	0.01093	0.059194	0.08439	290	290	290	0	0	1	-360	360	-4.9098	5.6138	4.9223	-15.8036	0.0000	0.0000	0.0000	0.0000;
	106	94	0.001942	0.013926	0.022845	446	446	446	0	0	1	-360	360	19.4845	-19.5852	-19.4730	16.8986	0.0000	0.0000	0.0000	0.0000;
	79	85	0.004318	0.029752	0.05264	373	373	373	0	0	1	-360	360	-95.2797	-5.8053	95.6052	1.6753	0.0000	0.0000	0.0000	0.0000;
	131	130	0.000661	0.004959	0.007579	419	419	419	0	0	1	-360	360	79.2436	17.2802	-79.2075	-17.9246	0.0000	0.0000	0.0000	0.0000;
	107	131	0.005372	0.040393	0.060055	419	419	419	0	0	1	-360	360	-68.7681	7.4136	68.9836	-13.0541	0.0000	0.0000	0.0000	0.0000;
	91	131	0.000826	0.005248	0.008683	305	305	305	0	0	1	-360	360	148.3776	4.1301	-148.2272	-4.2261	0.0000	0.0000	0.0000	0.0000;
	100	119	0.015888	0.087603	0.116818	347	347	347	0	0	1	-360	360	-28.5502	-4.3522	28.6586	-9.1539	0.0000	0.0000	0.0000	0.0000;
	81	113	0.002169	0.014587	0.025749	316	316	316	0	0	1	-360	360	33.3135	-4.0787	-33.2932	1.1387	0.0000	0.0000	0.0000	0.0000;
	116	101	0.017727	0.116777	0.163611	290	290	290	0	0	1	-360	360	33.0940	-16.0605	-32.9265	-2.5155	0.0000	0.0000	0.0000	0.0000;
	126	74	0.00593	0.04093	0.072145	446	446	446	0	0	1	-360	360	52.8347	1.3381	-52.6987	-9.2494	0.0000	0.0000	0.0000	0.0000;
	108	90	0.003905	0.028471	0.044983	427	427	427	0	0	1	-360	360	-226.5703	15.3509	228.2507	-8.5238	0.0000	0.0000	0.0000	0.0000;
	118	79	0.008161	0.042417	0.061197	385	385	385	0	0	1	-360	360	-20.6498	5.6509	20.6845	-12.8608	0.0000	0.0000	0.0000	0.0000;
	119	78	0.008161	0.042417	0.061197	385	385	385	0	0	1	-360	360	-47.7570	14.8721	47.9342	-21.3320	0.0000	0.0000	0.0000	0.0000;
	79	76	0.005186	0.038388	0.058748	492	492	492	0	0	1	-360	360	263.2402	-27.4118	-260.2342	42.5825	0.0000	0.0000	0.0000	0.0000;
	78	73	0.002128	0.014029	0.022603	335	335	335	0	0	1	-360	360	155.8728	-9.4785	-155.4415	9.6084	0.0000	0.0000	0.0000	0.0000;
	114	78	0.004628	0.027748	0.046115	362	362	362	0	0	1	-360	360	-46.6883	-8.7799	46.7742	3.7686	0.0000	0.0000	0.0000	0.0000;
	103	72	0.011219	0.070744	0.115705	290	290	290	0	0	1	-360	360	-102.4757	15.9969	103.5042	-23.4041	0.0000	0.0000	0.0000	0.0000;
	110	117	0.006012	0.041467	0.073636	427	427	427	0	0	1	-360	360	-54.5690	-0.7936	54.7192	-6.9962	0.0000	0.0000	0.0000	0.0000;
	91	69	0.002066	0.012789	0.020551	316	316	316	0	0	1	-360	360	61.8492	7.9232	-61.7825	-9.9952	0.0000	0.0000	0.0000	0.0000;
	86	90	0.001364	0.009731	0.016243	457	457	457	0	0	1	-360	360	-96.5049	-12.1544	96.6115	10.9518	0.0000	0.0000	0.0000	0.0000;
	129	87	0.000579	0.004112	0.007008	446	446	446	0	0	1	-360	360	-52.3432	-2.3405	52.3564	1.5887	0.0000	0.0000	0.0000	0.0000;
	132	76	0.000847	0.00624	0.009544	457	457	457	0	0	1	-360	360	-271.9990	62.0010	272.5453	-59.1289	0.0000	0.0000	0.0000	0.0000;
	133	77	0.000847	0.00626	0.009477	457	457	457	0	0	1	-360	360	-266.5000	24.8000	267.0045	-22.2130	0.0000	0.0000	0.0000	0.0000;
	102	77	0.001591	0.011116	0.019128	492	492	492	0	0	1	-360	360	146.0071	-29.1756	-145.7149	28.9146	0.0000	0.0000	0.0000	0.0000;
	125	104	0.003141	0.021591	0.038391	446	446	446	0	0	1	-360	360	100.1925	5.0498	-99.9353	-7.9937	0.0000	0.0000	0.0000	0.0000;
	126	111	0.004545	0.03157	0.055312	373	373	373	0	0	1	-360	360	131.4510	36.0470	-130.7560	-37.9368	0.0000	0.0000	0.0000	0.0000;
	104	84	0.001446	0.009917	0.017598	373	373	373	0	0	1	-360	360	137.6563	15.3724	-137.4290	-15.9598	0.0000	0.0000	0.0000	0.0000;
	105	95	0.003822	0.026674	0.046154	373	373	373	0	0	1	-360	360	-1.6875	14.1204	1.6965	-19.6813	0.0000	0.0000	0.0000	0.0000;
	112	80	0.007769	0.041281	0.063907	316	316	316	0	0	1	-360	360	43.5239	-9.6780	-43.3987	2.7008	0.0000	0.0000	0.0000	0.0000;
	89	78	0.004463	0.030413	0.048671	290	290	290	0	0	1	-360	360	54.0214	-20.1107	-53.9015	15.0907	0.0000	0.0000	0.0000	0.0000;
	117	108	0.005888	0.035062	0.052349	290	290	290	0	0	1	-360	360	-30.6174	2.3538	30.6648	-8.3561	0.0000	0.0000	0.0000	0.0000;
	109	99	0.003161	0.023409	0.036165	373	373	373	0	0	1	-360	360	40.3024	-10.3080	-40.2579	6.2935	0.0000	0.0000	0.0000	0.0000;
	116	79	0.001839	0.012603	0.022399	373	373	373	0	0	1	-360	360	34.5420	-24.6586	-34.5154	22.1462	0.0000	0.0000	0.0000	0.0000;
	107	88	0.001715	0.009607	0.014239	335	335	335	0	0	1	-360	360	171.2218	37.8583	-170.7848	-37.1232	0.0000	0.0000	0.0000	0.0000;
	98	79	0.003409	0.024421	0.039969	290	290	290	0	0	1	-360	360	23.1466	-12.6134	-23.1284	7.9327	0.0000	0.0000	0.0000	0.0000;
	117	78	0.001839	0.012603	0.02239	373	373	373	0	0	1	-360	360	-56.2729	0.6195	56.3214	-2.9766	0.0000	0.0000	0.0000	0.0000;
	83	97	0.005702	0.041488	0.066172	446	446	446	0	0	1	-360	360	9.0381	-7.6332	-9.0337	-0.4196	0.0000	0.0000	0.0000	0.0000;
	124	118	0.004587	0.024628	0.036165	347	347	347	0	0	1	-360	360	-40.2017	-19.8258	40.2755	15.8697	0.0000	0.0000	0.0000	0.0000;
	124	110	0.002149	0.013327	0.022109	290	290	290	0	0	1	-360	360	-4.1329	2.0470	4.1334	-4.6903	0.0000	0.0000	0.0000	0.0000;
	100	71	0.000785	0.004876	0.00726	316	316	316	0	0	1	-360	360	11.3319	1.5607	-11.3310	-2.4300	0.0000	0.0000	0.0000	0.0000;
	101	70	0.000785	0.004876	0.007241	316	316	316	0	0	1	-360	360	6.8003	-0.8705	-6.8000	-0.0000	0.0000	0.0000	0.0000	0.0000;
	93	127	0.002413	0.027544	0.767968	831	831	831	0	0	1	-360	360	102.5953	-14.4645	-102.3478	-66.5446	0.0000	0.0000	0.0000	0.0000;
	82	127	0.002462	0.028525	0.7616	1621	1621	1621	0	0	1	-360	360	109.5970	-33.8369	-109.3245	-45.7423	0.0000	0.0000	0.0000	0.0000;
	122	115	0.000913	0.0104	0.289888	1358	1358	1358	0	0	1	-360	360	-25.2345	19.5784	25.2504	-50.8594	0.0000	0.0000	0.0000	0.0000;
	123	121	0.003119	0.035631	0.991072	831	831	831	0	0	1	-360	360	224.6121	-63.9412	-223.1641	-27.3769	0.0000	0.0000	0.0000	0.0000;
	115	128	0.000919	0.010512	0.292928	1358	1358	1358	0	0	1	-360	360	-189.7889	2.3104	190.0976	-30.4694	0.0000	0.0000	0.0000	0.0000;
	174	156	0.01545	0.073349	0.126614	461	461	461	0	0	1	-360	360	-185.5633	15.1897	190.2809	-7.5445	0.0000	0.0000	0.0000	0.0000;
	175	155	0.01545	0.073349	0.126614	461	461	461	0	0	1	-360	360	-186.9938	15.5098	191.7851	-7.5160	0.0000	0.0000	0.0000	0.0000;
	177	155	0.01457	0.07955	0.14007	362	362	362	0	0	1	-360	360	-42.4564	-4.0937	42.6812	-11.2447	0.0000	0.0000	0.0000	0.0000;
	178	156	0.01457	0.07955	0.14007	362	362	362	0	0	1	-360	360	-40.9050	-4.2118	41.1137	-11.2133	0.0000	0.0000	0.0000	0.0000;
	177	144	0.006031	0.04401	0.069793	373	373	373	0	0	1	-360	360	-36.9079	-9.9019	36.9792	2.1578	0.0000	0.0000	0.0000	0.0000;
	166	140	0.011031	0.08057	0.124127	446	446	446	0	0	1	-360	360	140.0187	-25.0856	-138.2055	23.2388	0.0000	0.0000	0.0000	0.0000;
	137	155	0.005831	0.04231	0.070664	427	427	427	0	0	1	-360	360	-83.9009	-3.0196	84.2499	-2.7939	0.0000	0.0000	0.0000	0.0000;
	171	174	0.01849	0.095599	0.159139	305	305	305	0	0	1	-360	360	-45.5357	46.9790	46.3309	-61.7743	0.0000	0.0000	0.0000	0.0000;
	152	175	0.010581	0.053	0.088475	415	415	415	0	0	1	-360	360	-54.4140	47.2384	54.9235	-54.9989	0.0000	0.0000	0.0000	0.0000;
	154	156	0.012521	0.091359	0.145394	457	457	457	0	0	1	-360	360	-166.6531	17.6781	169.6953	-12.6152	0.0000	0.0000	0.0000	0.0000;
	136	137	0.00506	0.036539	0.063598	305	305	305	0	0	1	-360	360	-28.8032	-8.4306	28.8401	1.2371	0.0000	0.0000	0.0000	0.0000;
	148	143	0.01043	0.077891	0.122065	427	427	427	0	0	1	-360	360	-13.9749	-8.0594	13.9923	-6.2020	0.0000	0.0000	0.0000	0.0000;
	153	181	0.007711	0.056961	0.088378	373	373	373	0	0	1	-360	360	7.2276	21.1872	-7.1784	-31.0381	0.0000	0.0000	0.0000	0.0000;
	171	147	0.018599	0.09638	0.140941	290	290	290	0	0	1	-360	360	-138.1689	36.6974	141.3621	-37.3745	0.0000	0.0000	0.0000	0.0000;
	176	170	0.00244	0.01318	0.021296	377	377	377	0	0	1	-360	360	-39.4057	-8.6489	39.4377	6.2016	0.0000	0.0000	0.0000	0.0000;
	170	140	0.00355	0.02593	0.041237	446	446	446	0	0	1	-360	360	-76.7434	32.3879	76.9482	-35.9472	0.0000	0.0000	0.0000	0.0000;
	171	168	0.01312	0.076219	0.116644	362	362	362	0	0	1	-360	360	126.1622	-20.9065	-124.4469	16.5276	0.0000	0.0000	0.0000	0.0000;
	170	152	0.009341	0.05225	0.087701	305	305	305	0	0	1	-360	360	-28.4090	43.5673	28.6520	-52.8158	0.0000	0.0000	0.0000	0.0000;
	146	135	0.006141	0.032521	0.052456	385	385	385	0	0	1	-360	360	-218.1061	26.5395	220.5603	-19.9324	0.0000	0.0000	0.0000	0.0000;
	147	134	0.00438	0.03188	0.050723	457	457	457	0	0	1	-360	360	-226.8000	16.1589	228.6718	-8.7151	0.0000	0.0000	0.0000	0.0000;
	165	147	0.000479	0.00331	0.005711	446	446	446	0	0	1	-360	360	-147.9587	13.4784	148.0460	-13.5675	0.0000	0.0000	0.0000	0.0000;
	166	146	0.000479	0.00331	0.005711	446	446	446	0	0	1	-360	360	-164.3318	11.9155	164.4392	-11.8658	0.0000	0.0000	0.0000	0.0000;
	154	143	0.010539	0.076859	0.122355	373	373	373	0	0	1	-360	360	49.1013	-19.4773	-48.8708	6.7672	0.0000	0.0000	0.0000	0.0000;
	160	148	0.00469	0.034651	0.053821	427	427	427	0	0	1	-360	360	-55.7232	3.1579	55.8486	-8.5613	0.0000	0.0000	0.0000	0.0000;
	149	141	0.006469	0.0413	0.069212	427	427	427	0	0	1	-360	360	42.7384	-9.8604	-42.6361	2.3707	0.0000	0.0000	0.0000	0.0000;
	169	141	0.00105	0.007211	0.01028	373	373	373	0	0	1	-360	360	-21.0745	44.4955	21.0965	-45.5566	0.0000	0.0000	0.0000	0.0000;
	169	160	0.006099	0.044831	0.070954	373	373	373	0	0	1	-360	360	-0.5400	3.3197	0.5429	-11.6633	0.0000	0.0000	0.0000	0.0000;
	177	136	0.002211	0.01655	0.024781	373	373	373	0	0	1	-360	360	72.2750	18.3413	-72.1698	-20.4637	0.0000	0.0000	0.0000	0.0000;
	179	178	0.005169	0.036979	0.058951	373	373	373	0	0	1	-360	360	56.6829	5.9047	-56.5397	-11.8696	0.0000	0.0000	0.0000	0.0000;
	181	174	0.002401	0.017789	0.027588	381	381	381	0	0	1	-360	360	-90.6893	0.2156	90.8625	-2.0832	0.0000	0.0000	0.0000	0.0000;
	158	138	0.00274	0.02696	0.70592	1150	1150	1150	0	0	1	-360	360	17.4641	-81.5116	-17.4072	5.7847	0.0000	0.0000	0.0000	0.0000;
	164	139	0.0017	0.01733	0.45632	915	915	915	0	0	1	-360	360	188.1958	-20.7215	-187.6477	-23.6845	0.0000	0.0000	0.0000	0.0000;
	162	163	0.00136	0.01574	0.433664	1621	1621	1621	0	0	1	-360	360	-111.1804	-2.4087	111.3386	-43.4971	0.0000	0.0000	0.0000	0.0000;
	172	151	0.00371	0.04326	1.18688	693	693	693	0	0	1	-360	360	34.1845	-184.5076	-33.4698	75.8419	0.0000	0.0000	0.0000	0.0000;
...